<?xml version="1.0" encoding="UTF-8"?>
<configuration xmlns:xsi="http://www.w3.org/2001/XMLSchema-instance" xsi:noNamespaceSchemaLocation="http://sumo.dlr.de/xsd/sumoConfiguration.xsd">
  <input>
    <net-file value="Priority_to_right.net.xml"/>
    <route-files value="flows.net.xml"/>
    <additional-files value="output_definitions.add.xml"/>
  </input>
  <time>
    <begin value="0"/>
    <end value="3600"/>
    <step-length value="0.5"/>
  </time>
</configuration>
