<?xml version="1.0" encoding="UTF-8"?>

<!-- generated on 2025-01-03 13:21:28 by Eclipse SUMO netedit Version 1.19.0
<configuration xmlns:xsi="http://www.w3.org/2001/XMLSchema-instance" xsi:noNamespaceSchemaLocation="http://sumo.dlr.de/xsd/neteditConfiguration.xsd">

    <input>
        <sumo-net-file value="C:\Users\VargaBalazs\Desktop\Projektek\EKOP-multimodal\Scenarios\Scenarios\Roundabout_v1.net.xml"/>
    </input>

    <output>
        <output-file value="C:\Users\VargaBalazs\Desktop\Projektek\EKOP-multimodal\Scenarios\Scenarios\Roundabout_v1.net.xml"/>
    </output>

    <processing>
        <geometry.min-radius.fix.railways value="false"/>
        <geometry.max-grade.fix value="false"/>
        <offset.disable-normalization value="true"/>
        <lefthand value="0"/>
    </processing>

    <junctions>
        <no-internal-links value="false"/>
        <no-turnarounds value="true"/>
        <junctions.corner-detail value="5"/>
        <junctions.limit-turn-speed value="5.50"/>
        <rectangular-lane-cut value="0"/>
    </junctions>

    <pedestrian>
        <walkingareas value="0"/>
    </pedestrian>

</configuration>
-->

<net version="1.16" junctionCornerDetail="5" limitTurnSpeed="5.50" xmlns:xsi="http://www.w3.org/2001/XMLSchema-instance" xsi:noNamespaceSchemaLocation="http://sumo.dlr.de/xsd/net_file.xsd">

    <location netOffset="0.00,0.00" convBoundary="-200.00,-200.00,200.00,200.00" origBoundary="-10000000000.00,-10000000000.00,10000000000.00,10000000000.00" projParameter="!"/>

    <edge id=":gneJ10_0" function="internal">
        <lane id=":gneJ10_0_0" index="0" disallow="pedestrian" speed="7.85" length="3.44" width="4.00" shape="-5.65,5.40 -6.82,3.91 -8.07,3.00"/>
    </edge>
    <edge id=":gneJ10_1" function="internal">
        <lane id=":gneJ10_1_0" index="0" disallow="pedestrian" speed="7.64" length="12.32" width="5.00" shape="-5.65,5.40 -7.47,1.70 -8.07,-1.37 -7.45,-3.79 -5.61,-5.57"/>
    </edge>
    <edge id=":gneJ10_3" function="internal">
        <lane id=":gneJ10_3_0" index="0" disallow="pedestrian" speed="7.85" length="4.17" width="4.00" shape="-8.07,3.00 -8.28,2.85 -10.03,2.21 -12.07,2.00"/>
    </edge>
    <edge id=":gneJ10_2" function="internal">
        <lane id=":gneJ10_2_0" index="0" disallow="pedestrian" speed="12.54" length="7.61" width="5.00" shape="-12.07,-2.00 -9.95,-2.29 -8.64,-3.08 -7.44,-4.22 -5.61,-5.57"/>
    </edge>
    <edge id=":gneJ10_c0" function="crossing" crossingEdges="A_out A_in">
        <lane id=":gneJ10_c0_0" index="0" allow="pedestrian" speed="2.78" length="8.00" width="4.00" shape="-10.07,4.00 -10.07,-4.00"/>
    </edge>
    <edge id=":gneJ10_w0" function="walkingarea">
        <lane id=":gneJ10_w0_0" index="0" allow="pedestrian" speed="2.78" length="3.12" width="4.00" shape="-12.07,4.00 -12.07,6.00 -9.63,7.51 -7.92,6.48 -8.36,5.87 -8.99,5.20 -9.68,4.67 -10.42,4.30 -11.22,4.07"/>
    </edge>
    <edge id=":gneJ10_w1" function="walkingarea">
        <lane id=":gneJ10_w1_0" index="0" allow="pedestrian" speed="2.78" length="3.11" width="4.00" shape="-7.95,-6.49 -9.67,-7.51 -12.07,-6.00 -12.07,-4.00 -10.77,-4.16 -9.92,-4.60 -9.31,-5.25 -8.74,-6.03 -8.00,-6.88"/>
    </edge>
    <edge id=":gneJ11_w0" function="walkingarea">
        <lane id=":gneJ11_w0_0" index="0" allow="pedestrian" speed="2.78" length="10.00" width="2.00" shape="-200.00,-4.00 -200.00,-6.00 -200.00,6.00 -200.00,4.00"/>
    </edge>
    <edge id=":gneJ4_0" function="internal">
        <lane id=":gneJ4_0_0" index="0" disallow="pedestrian" speed="12.54" length="7.61" width="5.00" shape="12.07,2.00 9.95,2.29 8.64,3.08 7.44,4.22 5.61,5.57"/>
    </edge>
    <edge id=":gneJ4_1" function="internal">
        <lane id=":gneJ4_1_0" index="0" disallow="pedestrian" speed="7.81" length="3.43" width="4.00" shape="5.67,-5.42 6.83,-3.92 8.07,-3.01"/>
    </edge>
    <edge id=":gneJ4_2" function="internal">
        <lane id=":gneJ4_2_0" index="0" disallow="pedestrian" speed="7.66" length="12.31" width="5.00" shape="5.67,-5.42 7.47,-1.70 8.05,1.38 7.43,3.80 5.61,5.57"/>
    </edge>
    <edge id=":gneJ4_3" function="internal">
        <lane id=":gneJ4_3_0" index="0" disallow="pedestrian" speed="7.81" length="4.18" width="4.00" shape="8.07,-3.01 8.29,-2.86 10.03,-2.21 12.07,-2.00"/>
    </edge>
    <edge id=":gneJ4_c0" function="crossing" crossingEdges="C_out C_in">
        <lane id=":gneJ4_c0_0" index="0" allow="pedestrian" speed="2.78" length="8.00" width="4.00" shape="10.07,-4.00 10.07,4.00"/>
    </edge>
    <edge id=":gneJ4_w0" function="walkingarea">
        <lane id=":gneJ4_w0_0" index="0" allow="pedestrian" speed="2.78" length="3.11" width="4.00" shape="7.95,6.49 9.67,7.51 12.07,6.00 12.07,4.00 10.77,4.16 9.92,4.60 9.31,5.25 8.74,6.03 8.00,6.88"/>
    </edge>
    <edge id=":gneJ4_w1" function="walkingarea">
        <lane id=":gneJ4_w1_0" index="0" allow="pedestrian" speed="2.78" length="3.11" width="4.00" shape="12.07,-4.00 12.07,-6.00 9.66,-7.51 7.94,-6.49 8.38,-5.87 9.00,-5.20 9.68,-4.67 10.42,-4.30 11.22,-4.07"/>
    </edge>
    <edge id=":gneJ5_w0" function="walkingarea">
        <lane id=":gneJ5_w0_0" index="0" allow="pedestrian" speed="2.78" length="10.00" width="2.00" shape="200.00,4.00 200.00,6.00 200.00,-6.00 200.00,-4.00"/>
    </edge>
    <edge id=":gneJ6_0" function="internal">
        <lane id=":gneJ6_0_0" index="0" disallow="pedestrian" speed="12.41" length="7.63" width="5.00" shape="-2.00,12.08 -2.28,9.94 -3.05,8.62 -4.18,7.40 -5.55,5.57"/>
    </edge>
    <edge id=":gneJ6_1" function="internal">
        <lane id=":gneJ6_1_0" index="0" disallow="pedestrian" speed="7.82" length="3.44" width="4.00" shape="5.43,5.68 3.93,6.84 3.02,8.08"/>
    </edge>
    <edge id=":gneJ6_2" function="internal">
        <lane id=":gneJ6_2_0" index="0" disallow="pedestrian" speed="7.67" length="12.30" width="5.00" shape="5.43,5.68 1.74,7.46 -1.32,8.04 -3.75,7.41 -5.55,5.57"/>
    </edge>
    <edge id=":gneJ6_3" function="internal">
        <lane id=":gneJ6_3_0" index="0" disallow="pedestrian" speed="7.82" length="4.18" width="4.00" shape="3.02,8.08 2.86,8.30 2.21,10.05 2.00,12.08"/>
    </edge>
    <edge id=":gneJ6_c0" function="crossing" crossingEdges="D_out D_in">
        <lane id=":gneJ6_c0_0" index="0" allow="pedestrian" speed="2.78" length="8.00" width="4.00" shape="4.00,10.08 -4.00,10.08"/>
    </edge>
    <edge id=":gneJ6_w0" function="walkingarea">
        <lane id=":gneJ6_w0_0" index="0" allow="pedestrian" speed="2.78" length="3.11" width="4.00" shape="-6.48,7.94 -7.51,9.65 -6.00,12.08 -4.00,12.08 -4.16,10.77 -4.59,9.91 -5.22,9.30 -6.00,8.72 -6.84,7.98"/>
    </edge>
    <edge id=":gneJ6_w1" function="walkingarea">
        <lane id=":gneJ6_w1_0" index="0" allow="pedestrian" speed="2.78" length="3.11" width="4.00" shape="4.00,12.08 6.00,12.08 7.51,9.68 6.49,7.96 5.89,8.39 5.21,9.02 4.68,9.70 4.30,10.43 4.08,11.23"/>
    </edge>
    <edge id=":gneJ7_w0" function="walkingarea">
        <lane id=":gneJ7_w0_0" index="0" allow="pedestrian" speed="2.78" length="10.00" width="2.00" shape="-4.00,200.00 -6.00,200.00 6.00,200.00 4.00,200.00"/>
    </edge>
    <edge id=":gneJ8_0" function="internal">
        <lane id=":gneJ8_0_0" index="0" disallow="pedestrian" speed="12.61" length="7.62" width="5.00" shape="2.00,-12.08 2.29,-9.95 3.08,-8.64 4.22,-7.43 5.57,-5.59"/>
    </edge>
    <edge id=":gneJ8_1" function="internal">
        <lane id=":gneJ8_1_0" index="0" disallow="pedestrian" speed="7.82" length="3.44" width="4.00" shape="-5.43,-5.68 -3.93,-6.84 -3.02,-8.08"/>
    </edge>
    <edge id=":gneJ8_2" function="internal">
        <lane id=":gneJ8_2_0" index="0" disallow="pedestrian" speed="7.66" length="12.34" width="5.00" shape="-5.43,-5.68 -1.71,-7.48 1.36,-8.07 3.79,-7.44 5.57,-5.59"/>
    </edge>
    <edge id=":gneJ8_3" function="internal">
        <lane id=":gneJ8_3_0" index="0" disallow="pedestrian" speed="7.82" length="4.18" width="4.00" shape="-3.02,-8.08 -2.86,-8.30 -2.21,-10.05 -2.00,-12.08"/>
    </edge>
    <edge id=":gneJ8_c0" function="crossing" crossingEdges="B_out B_in">
        <lane id=":gneJ8_c0_0" index="0" allow="pedestrian" speed="2.78" length="8.00" width="4.00" shape="-4.00,-10.08 4.00,-10.08"/>
    </edge>
    <edge id=":gneJ8_w0" function="walkingarea">
        <lane id=":gneJ8_w0_0" index="0" allow="pedestrian" speed="2.78" length="3.11" width="4.00" shape="6.49,-7.95 7.51,-9.66 6.00,-12.08 4.00,-12.08 4.16,-10.77 4.60,-9.92 5.25,-9.30 6.03,-8.73 6.88,-7.99"/>
    </edge>
    <edge id=":gneJ8_w1" function="walkingarea">
        <lane id=":gneJ8_w1_0" index="0" allow="pedestrian" speed="2.78" length="3.11" width="4.00" shape="-4.00,-12.08 -6.00,-12.08 -7.51,-9.68 -6.49,-7.96 -5.89,-8.39 -5.21,-9.02 -4.68,-9.70 -4.30,-10.43 -4.08,-11.23"/>
    </edge>
    <edge id=":gneJ9_w0" function="walkingarea">
        <lane id=":gneJ9_w0_0" index="0" allow="pedestrian" speed="2.78" length="10.00" width="2.00" shape="4.00,-200.00 6.00,-200.00 -6.00,-200.00 -4.00,-200.00"/>
    </edge>

    <edge id="A_in" from="gneJ11" to="gneJ10" priority="1">
        <lane id="A_in_0" index="0" allow="pedestrian" speed="13.89" length="187.93" width="2.00" shape="-200.00,-5.00 -12.07,-5.00"/>
        <lane id="A_in_1" index="1" disallow="pedestrian" speed="13.89" length="187.93" width="4.00" shape="-200.00,-2.00 -12.07,-2.00"/>
    </edge>
    <edge id="A_out" from="gneJ10" to="gneJ11" priority="1">
        <lane id="A_out_0" index="0" allow="pedestrian" speed="13.89" length="187.93" width="2.00" shape="-12.07,5.00 -200.00,5.00"/>
        <lane id="A_out_1" index="1" disallow="pedestrian" speed="13.89" length="187.93" width="4.00" shape="-12.07,2.00 -200.00,2.00"/>
    </edge>
    <edge id="B_in" from="gneJ9" to="gneJ8" priority="1">
        <lane id="B_in_0" index="0" allow="pedestrian" speed="13.89" length="187.92" width="2.00" shape="5.00,-200.00 5.00,-12.08"/>
        <lane id="B_in_1" index="1" disallow="pedestrian" speed="13.89" length="187.92" width="4.00" shape="2.00,-200.00 2.00,-12.08"/>
    </edge>
    <edge id="B_out" from="gneJ8" to="gneJ9" priority="1">
        <lane id="B_out_0" index="0" allow="pedestrian" speed="13.89" length="187.92" width="2.00" shape="-5.00,-12.08 -5.00,-200.00"/>
        <lane id="B_out_1" index="1" disallow="pedestrian" speed="13.89" length="187.92" width="4.00" shape="-2.00,-12.08 -2.00,-200.00"/>
    </edge>
    <edge id="C_in" from="gneJ5" to="gneJ4" priority="1">
        <lane id="C_in_0" index="0" allow="pedestrian" speed="13.89" length="187.93" width="2.00" shape="200.00,5.00 12.07,5.00"/>
        <lane id="C_in_1" index="1" disallow="pedestrian" speed="13.89" length="187.93" width="4.00" shape="200.00,2.00 12.07,2.00"/>
    </edge>
    <edge id="C_out" from="gneJ4" to="gneJ5" priority="1">
        <lane id="C_out_0" index="0" allow="pedestrian" speed="13.89" length="187.93" width="2.00" shape="12.07,-5.00 200.00,-5.00"/>
        <lane id="C_out_1" index="1" disallow="pedestrian" speed="13.89" length="187.93" width="4.00" shape="12.07,-2.00 200.00,-2.00"/>
    </edge>
    <edge id="D_in" from="gneJ7" to="gneJ6" priority="-1">
        <lane id="D_in_0" index="0" allow="pedestrian" speed="13.89" length="187.92" width="2.00" shape="-5.00,200.00 -5.00,12.08"/>
        <lane id="D_in_1" index="1" disallow="pedestrian" speed="13.89" length="187.92" width="4.00" shape="-2.00,200.00 -2.00,12.08"/>
    </edge>
    <edge id="D_out" from="gneJ6" to="gneJ7" priority="-1">
        <lane id="D_out_0" index="0" allow="pedestrian" speed="13.89" length="187.92" width="2.00" shape="5.00,12.08 5.00,200.00"/>
        <lane id="D_out_1" index="1" disallow="pedestrian" speed="13.89" length="187.92" width="4.00" shape="2.00,12.08 2.00,200.00"/>
    </edge>
    <edge id="gneE6" from="gneJ10" to="gneJ8" priority="3" shape="-5.00,0.00 -4.69,-2.20 -3.75,-3.77 -2.19,-4.70 0.00,-5.00">
        <lane id="gneE6_0" index="0" allow="pedestrian" speed="13.89" length="1.42" width="2.00" shape="-8.81,-7.00 -8.12,-8.15 -7.00,-8.82"/>
        <lane id="gneE6_1" index="1" disallow="pedestrian" speed="13.89" length="1.42" width="5.00" shape="-5.61,-5.57 -5.43,-5.68"/>
    </edge>
    <edge id="gneE7" from="gneJ8" to="gneJ4" priority="3" shape="0.00,-5.00 2.18,-4.70 3.75,-3.76 4.68,-2.19 5.00,0.00">
        <lane id="gneE7_0" index="0" allow="pedestrian" speed="13.89" length="1.42" width="2.00" shape="7.00,-8.81 8.14,-8.13 8.80,-7.00"/>
        <lane id="gneE7_1" index="1" disallow="pedestrian" speed="13.89" length="1.42" width="5.00" shape="5.57,-5.59 5.67,-5.42"/>
    </edge>
    <edge id="gneE8" from="gneJ4" to="gneJ6" priority="3" shape="5.00,0.00 4.69,2.20 3.75,3.77 2.19,4.70 0.00,5.00">
        <lane id="gneE8_0" index="0" allow="pedestrian" speed="13.89" length="1.42" width="2.00" shape="8.81,7.00 8.12,8.15 7.00,8.82"/>
        <lane id="gneE8_1" index="1" disallow="pedestrian" speed="13.89" length="1.42" width="5.00" shape="5.61,5.57 5.43,5.68"/>
    </edge>
    <edge id="gneE9" from="gneJ6" to="gneJ10" priority="3" shape="0.00,5.00 -2.17,4.70 -3.72,3.76 -4.67,2.19 -5.00,0.00">
        <lane id="gneE9_0" index="0" allow="pedestrian" speed="13.89" length="1.40" width="2.00" shape="-7.00,8.79 -8.09,8.13 -8.78,6.99"/>
        <lane id="gneE9_1" index="1" disallow="pedestrian" speed="13.89" length="1.40" width="5.00" shape="-5.55,5.57 -5.65,5.40"/>
    </edge>

    <junction id="gneJ10" type="priority" x="-5.00" y="0.00" incLanes="gneE9_0 gneE9_1 A_in_0 A_in_1 :gneJ10_w0_0" intLanes=":gneJ10_3_0 :gneJ10_1_0 :gneJ10_2_0 :gneJ10_c0_0" shape="-9.77,7.28 -1.31,4.82 -3.52,3.90 -4.84,2.15 -5.27,-0.01 -4.82,-2.17 -3.49,-3.91 -1.27,-4.83 -9.80,-7.29 -10.40,-6.57 -10.76,-6.32 -11.15,-6.14 -11.59,-6.04 -12.07,-6.00 -12.07,6.00 -11.14,6.14 -10.73,6.32 -10.37,6.57 -10.05,6.89">
        <request index="0" response="1000" foes="1000" cont="1"/>
        <request index="1" response="0000" foes="0100" cont="0"/>
        <request index="2" response="0010" foes="1010" cont="0"/>
        <request index="3" response="0100" foes="0101" cont="0"/>
    </junction>
    <junction id="gneJ11" type="dead_end" x="-200.00" y="0.00" incLanes="A_out_0 A_out_1" intLanes="" shape="-200.00,0.00 -200.00,6.00 -200.00,0.00"/>
    <junction id="gneJ4" type="priority" x="5.00" y="0.00" incLanes="C_in_0 C_in_1 gneE7_0 gneE7_1 :gneJ4_w1_0" intLanes=":gneJ4_0_0 :gneJ4_3_0 :gneJ4_2_0 :gneJ4_c0_0" shape="12.07,6.00 12.07,-6.00 11.15,-6.14 10.75,-6.32 10.39,-6.57 10.07,-6.90 9.79,-7.29 1.30,-4.82 3.51,-3.90 4.83,-2.16 5.27,0.00 4.82,2.16 3.49,3.91 1.27,4.83 9.80,7.29 10.40,6.57 10.76,6.32 11.15,6.14 11.59,6.04">
        <request index="0" response="0100" foes="1100" cont="0"/>
        <request index="1" response="1000" foes="1000" cont="1"/>
        <request index="2" response="0000" foes="0001" cont="0"/>
        <request index="3" response="0001" foes="0011" cont="0"/>
    </junction>
    <junction id="gneJ5" type="dead_end" x="200.00" y="0.00" incLanes="C_out_0 C_out_1" intLanes="" shape="200.00,0.00 200.00,-6.00 200.00,0.00"/>
    <junction id="gneJ6" type="priority" x="0.00" y="5.00" incLanes="D_in_0 D_in_1 gneE8_0 gneE8_1 :gneJ6_w1_0" intLanes=":gneJ6_0_0 :gneJ6_3_0 :gneJ6_2_0 :gneJ6_c0_0" shape="-6.00,12.08 6.00,12.08 6.14,11.16 6.32,10.76 6.57,10.40 6.89,10.09 7.29,9.81 4.82,1.24 3.91,3.45 2.17,4.77 0.02,5.21 -2.13,4.76 -3.88,3.43 -4.82,1.22 -7.28,9.79 -6.57,10.39 -6.32,10.75 -6.14,11.15 -6.04,11.59">
        <request index="0" response="0100" foes="1100" cont="0"/>
        <request index="1" response="1000" foes="1000" cont="1"/>
        <request index="2" response="0000" foes="0001" cont="0"/>
        <request index="3" response="0001" foes="0011" cont="0"/>
    </junction>
    <junction id="gneJ7" type="dead_end" x="0.00" y="200.00" incLanes="D_out_0 D_out_1" intLanes="" shape="0.00,200.00 6.00,200.00 0.00,200.00"/>
    <junction id="gneJ8" type="priority" x="0.00" y="-5.00" incLanes="B_in_0 B_in_1 gneE6_0 gneE6_1 :gneJ8_w1_0" intLanes=":gneJ8_0_0 :gneJ8_3_0 :gneJ8_2_0 :gneJ8_c0_0" shape="4.82,-1.24 7.29,-9.80 6.57,-10.40 6.32,-10.76 6.14,-11.16 6.04,-11.60 6.00,-12.08 -6.00,-12.08 -6.14,-11.16 -6.32,-10.76 -6.57,-10.40 -6.89,-10.09 -7.29,-9.81 -4.82,-1.24 -3.90,-3.45 -2.16,-4.78 -0.01,-5.22 2.14,-4.77 3.89,-3.45">
        <request index="0" response="0100" foes="1100" cont="0"/>
        <request index="1" response="1000" foes="1000" cont="1"/>
        <request index="2" response="0000" foes="0001" cont="0"/>
        <request index="3" response="0001" foes="0011" cont="0"/>
    </junction>
    <junction id="gneJ9" type="dead_end" x="0.00" y="-200.00" incLanes="B_out_0 B_out_1" intLanes="" shape="0.00,-200.00 -6.00,-200.00 0.00,-200.00"/>

    <junction id=":gneJ10_3_0" type="internal" x="-8.07" y="3.00" incLanes=":gneJ10_0_0" intLanes=":gneJ10_c0_0"/>
    <junction id=":gneJ4_3_0" type="internal" x="8.07" y="-3.01" incLanes=":gneJ4_1_0" intLanes=":gneJ4_c0_0"/>
    <junction id=":gneJ6_3_0" type="internal" x="3.02" y="8.08" incLanes=":gneJ6_1_0" intLanes=":gneJ6_c0_0"/>
    <junction id=":gneJ8_3_0" type="internal" x="-3.02" y="-8.08" incLanes=":gneJ8_1_0" intLanes=":gneJ8_c0_0"/>

    <connection from="A_in" to="gneE6" fromLane="1" toLane="1" via=":gneJ10_2_0" dir="r" state="m" visibility="9.00"/>
    <connection from="B_in" to="gneE7" fromLane="1" toLane="1" via=":gneJ8_0_0" dir="r" state="m" visibility="9.00"/>
    <connection from="C_in" to="gneE8" fromLane="1" toLane="1" via=":gneJ4_0_0" dir="r" state="m" visibility="9.00"/>
    <connection from="D_in" to="gneE9" fromLane="1" toLane="1" via=":gneJ6_0_0" dir="r" state="m" visibility="9.00"/>
    <connection from="gneE6" to="B_out" fromLane="1" toLane="1" via=":gneJ8_1_0" dir="r" state="m"/>
    <connection from="gneE6" to="gneE7" fromLane="1" toLane="1" via=":gneJ8_2_0" dir="s" state="M"/>
    <connection from="gneE7" to="C_out" fromLane="1" toLane="1" via=":gneJ4_1_0" dir="r" state="m"/>
    <connection from="gneE7" to="gneE8" fromLane="1" toLane="1" via=":gneJ4_2_0" dir="s" state="M"/>
    <connection from="gneE8" to="D_out" fromLane="1" toLane="1" via=":gneJ6_1_0" dir="r" state="m"/>
    <connection from="gneE8" to="gneE9" fromLane="1" toLane="1" via=":gneJ6_2_0" dir="s" state="M"/>
    <connection from="gneE9" to="A_out" fromLane="1" toLane="1" via=":gneJ10_0_0" dir="r" state="m"/>
    <connection from="gneE9" to="gneE6" fromLane="1" toLane="1" via=":gneJ10_1_0" dir="s" state="M"/>

    <connection from=":gneJ10_0" to="A_out" fromLane="0" toLane="1" via=":gneJ10_3_0" dir="r" state="m"/>
    <connection from=":gneJ10_3" to="A_out" fromLane="0" toLane="1" dir="r" state="m"/>
    <connection from=":gneJ10_1" to="gneE6" fromLane="0" toLane="1" dir="s" state="M"/>
    <connection from=":gneJ10_2" to="gneE6" fromLane="0" toLane="1" dir="r" state="M"/>
    <connection from=":gneJ4_0" to="gneE8" fromLane="0" toLane="1" dir="r" state="M"/>
    <connection from=":gneJ4_1" to="C_out" fromLane="0" toLane="1" via=":gneJ4_3_0" dir="r" state="m"/>
    <connection from=":gneJ4_3" to="C_out" fromLane="0" toLane="1" dir="r" state="m"/>
    <connection from=":gneJ4_2" to="gneE8" fromLane="0" toLane="1" dir="s" state="M"/>
    <connection from=":gneJ6_0" to="gneE9" fromLane="0" toLane="1" dir="r" state="M"/>
    <connection from=":gneJ6_1" to="D_out" fromLane="0" toLane="1" via=":gneJ6_3_0" dir="r" state="m"/>
    <connection from=":gneJ6_3" to="D_out" fromLane="0" toLane="1" dir="r" state="m"/>
    <connection from=":gneJ6_2" to="gneE9" fromLane="0" toLane="1" dir="s" state="M"/>
    <connection from=":gneJ8_0" to="gneE7" fromLane="0" toLane="1" dir="r" state="M"/>
    <connection from=":gneJ8_1" to="B_out" fromLane="0" toLane="1" via=":gneJ8_3_0" dir="r" state="m"/>
    <connection from=":gneJ8_3" to="B_out" fromLane="0" toLane="1" dir="r" state="m"/>
    <connection from=":gneJ8_2" to="gneE7" fromLane="0" toLane="1" dir="s" state="M"/>

    <connection from=":gneJ10_c0" to=":gneJ10_w1" fromLane="0" toLane="0" dir="s" state="M"/>
    <connection from=":gneJ10_w0" to=":gneJ10_c0" fromLane="0" toLane="0" dir="s" state="m"/>
    <connection from=":gneJ10_w0" to="A_out" fromLane="0" toLane="0" dir="s" state="M"/>
    <connection from="gneE9" to=":gneJ10_w0" fromLane="0" toLane="0" dir="s" state="M"/>
    <connection from=":gneJ10_w1" to="gneE6" fromLane="0" toLane="0" dir="s" state="M"/>
    <connection from="A_in" to=":gneJ10_w1" fromLane="0" toLane="0" dir="s" state="M"/>
    <connection from=":gneJ11_w0" to="A_in" fromLane="0" toLane="0" dir="s" state="M"/>
    <connection from="A_out" to=":gneJ11_w0" fromLane="0" toLane="0" dir="s" state="M"/>
    <connection from=":gneJ4_c0" to=":gneJ4_w0" fromLane="0" toLane="0" dir="s" state="M"/>
    <connection from=":gneJ4_w0" to="gneE8" fromLane="0" toLane="0" dir="s" state="M"/>
    <connection from="C_in" to=":gneJ4_w0" fromLane="0" toLane="0" dir="s" state="M"/>
    <connection from=":gneJ4_w1" to=":gneJ4_c0" fromLane="0" toLane="0" dir="s" state="m"/>
    <connection from=":gneJ4_w1" to="C_out" fromLane="0" toLane="0" dir="s" state="M"/>
    <connection from="gneE7" to=":gneJ4_w1" fromLane="0" toLane="0" dir="s" state="M"/>
    <connection from=":gneJ5_w0" to="C_in" fromLane="0" toLane="0" dir="s" state="M"/>
    <connection from="C_out" to=":gneJ5_w0" fromLane="0" toLane="0" dir="s" state="M"/>
    <connection from=":gneJ6_c0" to=":gneJ6_w0" fromLane="0" toLane="0" dir="s" state="M"/>
    <connection from=":gneJ6_w0" to="gneE9" fromLane="0" toLane="0" dir="s" state="M"/>
    <connection from="D_in" to=":gneJ6_w0" fromLane="0" toLane="0" dir="s" state="M"/>
    <connection from=":gneJ6_w1" to=":gneJ6_c0" fromLane="0" toLane="0" dir="s" state="m"/>
    <connection from=":gneJ6_w1" to="D_out" fromLane="0" toLane="0" dir="s" state="M"/>
    <connection from="gneE8" to=":gneJ6_w1" fromLane="0" toLane="0" dir="s" state="M"/>
    <connection from=":gneJ7_w0" to="D_in" fromLane="0" toLane="0" dir="s" state="M"/>
    <connection from="D_out" to=":gneJ7_w0" fromLane="0" toLane="0" dir="s" state="M"/>
    <connection from=":gneJ8_c0" to=":gneJ8_w0" fromLane="0" toLane="0" dir="s" state="M"/>
    <connection from=":gneJ8_w0" to="gneE7" fromLane="0" toLane="0" dir="s" state="M"/>
    <connection from="B_in" to=":gneJ8_w0" fromLane="0" toLane="0" dir="s" state="M"/>
    <connection from=":gneJ8_w1" to=":gneJ8_c0" fromLane="0" toLane="0" dir="s" state="m"/>
    <connection from=":gneJ8_w1" to="B_out" fromLane="0" toLane="0" dir="s" state="M"/>
    <connection from="gneE6" to=":gneJ8_w1" fromLane="0" toLane="0" dir="s" state="M"/>
    <connection from=":gneJ9_w0" to="B_in" fromLane="0" toLane="0" dir="s" state="M"/>
    <connection from="B_out" to=":gneJ9_w0" fromLane="0" toLane="0" dir="s" state="M"/>
    <roundabout nodes="gneJ10 gneJ4 gneJ6 gneJ8" edges="gneE6 gneE7 gneE8 gneE9"/>

</net>
