<?xml version="1.0" encoding="UTF-8"?>

<!-- generated on 2025-01-03 13:22:30 by Eclipse SUMO netedit Version 1.19.0
<configuration xmlns:xsi="http://www.w3.org/2001/XMLSchema-instance" xsi:noNamespaceSchemaLocation="http://sumo.dlr.de/xsd/neteditConfiguration.xsd">

    <input>
        <sumo-net-file value="C:\Users\VargaBalazs\Desktop\Projektek\EKOP-multimodal\Scenarios\Scenarios\Roundabout_v2.net.xml"/>
    </input>

    <output>
        <output-file value="C:\Users\VargaBalazs\Desktop\Projektek\EKOP-multimodal\Scenarios\Scenarios\Roundabout_v2.net.xml"/>
    </output>

    <processing>
        <geometry.min-radius.fix.railways value="false"/>
        <geometry.max-grade.fix value="false"/>
        <offset.disable-normalization value="true"/>
        <lefthand value="0"/>
    </processing>

    <junctions>
        <no-internal-links value="false"/>
        <no-turnarounds value="true"/>
        <junctions.corner-detail value="5"/>
        <junctions.limit-turn-speed value="5.50"/>
        <rectangular-lane-cut value="0"/>
    </junctions>

    <pedestrian>
        <walkingareas value="0"/>
    </pedestrian>

</configuration>
-->

<net version="1.16" junctionCornerDetail="5" limitTurnSpeed="5.50" xmlns:xsi="http://www.w3.org/2001/XMLSchema-instance" xsi:noNamespaceSchemaLocation="http://sumo.dlr.de/xsd/net_file.xsd">

    <location netOffset="0.00,0.00" convBoundary="-200.00,-200.00,200.00,200.00" origBoundary="-10000000000.00,-10000000000.00,10000000000.00,10000000000.00" projParameter="!"/>

    <edge id=":J0_0" function="internal">
        <lane id=":J0_0_0" index="0" disallow="pedestrian" speed="13.89" length="4.13" shape="-17.73,1.78 -21.85,1.60"/>
    </edge>
    <edge id=":J0_1" function="internal">
        <lane id=":J0_1_0" index="0" disallow="pedestrian" speed="13.89" length="3.86" shape="-21.85,-1.60 -17.99,-1.76"/>
    </edge>
    <edge id=":J0_c0" function="crossing" crossingEdges="A_out A_in">
        <lane id=":J0_c0_0" index="0" allow="pedestrian" speed="2.78" length="6.40" width="4.00" shape="-19.85,3.20 -19.85,-3.20"/>
    </edge>
    <edge id=":J0_w0" function="walkingarea">
        <lane id=":J0_w0_0" index="0" allow="pedestrian" speed="2.78" length="3.06" width="4.00" shape="-17.85,3.20 -21.85,3.20 -21.85,5.20 -17.61,5.40 -17.45,3.41"/>
    </edge>
    <edge id=":J0_w1" function="walkingarea">
        <lane id=":J0_w1_0" index="0" allow="pedestrian" speed="2.78" length="2.64" width="4.00" shape="-18.11,-3.36 -18.26,-5.35 -21.85,-5.20 -21.85,-3.20 -17.85,-3.20"/>
    </edge>
    <edge id=":J1_0" function="internal">
        <lane id=":J1_0_0" index="0" allow="pedestrian" speed="13.89" length="3.77" width="2.00" shape="21.85,4.20 18.18,4.35"/>
        <lane id=":J1_0_1" index="1" disallow="pedestrian" speed="13.89" length="3.77" shape="21.85,1.60 17.99,1.76"/>
    </edge>
    <edge id=":J1_2" function="internal">
        <lane id=":J1_2_0" index="0" disallow="pedestrian" speed="13.89" length="4.13" shape="17.73,-1.78 21.85,-1.60"/>
    </edge>
    <edge id=":J1_c0" function="crossing" crossingEdges="C_out C_in">
        <lane id=":J1_c0_0" index="0" allow="pedestrian" speed="2.78" length="6.40" width="4.00" shape="19.85,-3.20 19.85,3.20"/>
    </edge>
    <edge id=":J1_w0" function="walkingarea">
        <lane id=":J1_w0_0" index="0" allow="pedestrian" speed="2.78" length="2.64" width="4.00" shape="18.11,3.36 18.26,5.35 21.85,5.20 21.85,3.20 17.85,3.20"/>
    </edge>
    <edge id=":J1_w1" function="walkingarea">
        <lane id=":J1_w1_0" index="0" allow="pedestrian" speed="2.78" length="3.06" width="4.00" shape="17.85,-3.20 21.85,-3.20 21.85,-5.20 17.61,-5.40 17.45,-3.41"/>
    </edge>
    <edge id=":J10_0" function="internal">
        <lane id=":J10_0_0" index="0" disallow="pedestrian" speed="8.20" length="6.81" shape="-2.23,11.84 -2.54,10.31 -3.24,8.88 -4.32,7.53 -5.78,6.26"/>
    </edge>
    <edge id=":J10_1" function="internal">
        <lane id=":J10_1_0" index="0" disallow="pedestrian" speed="9.88" length="6.33" shape="-0.10,8.60 -1.94,8.49 -3.16,8.11 -4.28,7.40 -5.78,6.26"/>
    </edge>
    <edge id=":J10_w0" function="walkingarea">
        <lane id=":J10_w0_0" index="0" allow="pedestrian" speed="2.78" length="3.80" width="2.00" shape="-6.17,7.96 -7.36,9.57 -5.82,12.12 -3.83,11.96 -3.96,11.17 -4.23,10.40 -4.65,9.65 -5.20,8.93 -5.89,8.23"/>
    </edge>
    <edge id=":J11_0" function="internal">
        <lane id=":J11_0_0" index="0" disallow="pedestrian" speed="8.14" length="6.90" shape="5.88,6.34 4.37,7.60 3.26,8.95 2.54,10.40 2.22,11.94"/>
    </edge>
    <edge id=":J11_1" function="internal">
        <lane id=":J11_1_0" index="0" disallow="pedestrian" speed="10.14" length="6.39" shape="5.88,6.34 4.35,7.45 3.20,8.14 1.96,8.50 0.10,8.60"/>
    </edge>
    <edge id=":J11_w0" function="walkingarea">
        <lane id=":J11_w0_0" index="0" allow="pedestrian" speed="2.78" length="3.82" width="2.00" shape="3.82,12.06 5.81,12.21 7.38,9.69 6.22,8.06 5.95,8.32 5.23,9.02 4.66,9.74 4.23,10.49 3.96,11.26"/>
    </edge>
    <edge id=":J12_0" function="internal">
        <lane id=":J12_0_0" index="0" disallow="pedestrian" speed="8.16" length="6.97" shape="11.97,2.22 10.42,2.55 8.97,3.27 7.61,4.40 6.33,5.94"/>
    </edge>
    <edge id=":J12_1" function="internal">
        <lane id=":J12_1_0" index="0" disallow="pedestrian" speed="10.23" length="6.44" shape="8.60,0.10 8.50,1.97 8.14,3.23 7.45,4.39 6.33,5.94"/>
    </edge>
    <edge id=":J12_w0" function="walkingarea">
        <lane id=":J12_w0_0" index="0" allow="pedestrian" speed="2.78" length="3.83" width="2.00" shape="8.08,6.24 9.71,7.39 12.25,5.81 12.09,3.82 11.29,3.95 10.52,4.24 9.76,4.67 9.03,5.25 8.32,5.98"/>
    </edge>
    <edge id=":J13_0" function="internal">
        <lane id=":J13_0_0" index="0" disallow="pedestrian" speed="8.16" length="7.02" shape="6.36,-5.98 7.64,-4.43 9.01,-3.28 10.47,-2.55 12.02,-2.22"/>
    </edge>
    <edge id=":J13_1" function="internal">
        <lane id=":J13_1_0" index="0" disallow="pedestrian" speed="10.31" length="6.48" shape="6.36,-5.98 7.47,-4.42 8.16,-3.26 8.50,-1.99 8.60,-0.10"/>
    </edge>
    <edge id=":J13_w0" function="walkingarea">
        <lane id=":J13_w0_0" index="0" allow="pedestrian" speed="2.78" length="3.84" width="2.00" shape="12.14,-3.81 12.29,-5.81 9.76,-7.40 8.12,-6.25 8.36,-6.01 9.07,-5.27 9.80,-4.68 10.56,-4.24 11.34,-3.95"/>
    </edge>
    <edge id=":J14_0" function="internal">
        <lane id=":J14_0_0" index="0" disallow="pedestrian" speed="8.14" length="6.93" shape="2.22,-11.98 2.54,-10.43 3.27,-8.98 4.39,-7.63 5.91,-6.36"/>
    </edge>
    <edge id=":J14_1" function="internal">
        <lane id=":J14_1_0" index="0" disallow="pedestrian" speed="10.19" length="6.40" shape="0.10,-8.60 1.96,-8.50 3.22,-8.15 4.36,-7.47 5.91,-6.36"/>
    </edge>
    <edge id=":J14_w0" function="walkingarea">
        <lane id=":J14_w0_0" index="0" allow="pedestrian" speed="2.78" length="3.82" width="2.00" shape="6.23,-8.09 7.38,-9.73 5.81,-12.25 3.82,-12.10 3.95,-11.30 4.24,-10.53 4.66,-9.78 5.24,-9.05 5.96,-8.35"/>
    </edge>
    <edge id=":J15_0" function="internal">
        <lane id=":J15_0_0" index="0" disallow="pedestrian" speed="8.21" length="6.82" shape="-5.78,-6.25 -4.32,-7.52 -3.24,-8.87 -2.55,-10.31 -2.23,-11.83"/>
    </edge>
    <edge id=":J15_1" function="internal">
        <lane id=":J15_1_0" index="0" disallow="pedestrian" speed="9.87" length="6.34" shape="-5.78,-6.25 -4.28,-7.39 -3.17,-8.11 -1.94,-8.49 -0.10,-8.60"/>
    </edge>
    <edge id=":J15_w0" function="walkingarea">
        <lane id=":J15_w0_0" index="0" allow="pedestrian" speed="2.78" length="3.81" width="2.00" shape="-3.83,-11.96 -5.82,-12.11 -7.36,-9.56 -6.17,-7.95 -5.90,-8.22 -5.20,-8.92 -4.65,-9.65 -4.23,-10.39 -3.96,-11.16"/>
    </edge>
    <edge id=":J2_0" function="internal">
        <lane id=":J2_0_0" index="0" allow="pedestrian" speed="13.89" length="3.77" width="2.00" shape="-4.20,21.85 -4.35,18.18"/>
        <lane id=":J2_0_1" index="1" disallow="pedestrian" speed="13.89" length="3.77" shape="-1.60,21.85 -1.76,17.99"/>
    </edge>
    <edge id=":J2_2" function="internal">
        <lane id=":J2_2_0" index="0" disallow="pedestrian" speed="13.89" length="4.13" shape="1.78,17.73 1.60,21.85"/>
    </edge>
    <edge id=":J2_c0" function="crossing" crossingEdges="D_out D_in">
        <lane id=":J2_c0_0" index="0" allow="pedestrian" speed="2.78" length="6.40" width="4.00" shape="3.20,19.85 -3.20,19.85"/>
    </edge>
    <edge id=":J2_w0" function="walkingarea">
        <lane id=":J2_w0_0" index="0" allow="pedestrian" speed="2.78" length="2.64" width="4.00" shape="-3.36,18.11 -5.35,18.26 -5.20,21.85 -3.20,21.85 -3.20,17.85"/>
    </edge>
    <edge id=":J2_w1" function="walkingarea">
        <lane id=":J2_w1_0" index="0" allow="pedestrian" speed="2.78" length="3.06" width="4.00" shape="3.20,17.85 3.20,21.85 5.20,21.85 5.40,17.61 3.41,17.45"/>
    </edge>
    <edge id=":J3_0" function="internal">
        <lane id=":J3_0_0" index="0" allow="pedestrian" speed="13.89" length="3.77" width="2.00" shape="4.20,-21.85 4.35,-18.18"/>
        <lane id=":J3_0_1" index="1" disallow="pedestrian" speed="13.89" length="3.77" shape="1.60,-21.85 1.76,-17.99"/>
    </edge>
    <edge id=":J3_2" function="internal">
        <lane id=":J3_2_0" index="0" disallow="pedestrian" speed="13.89" length="4.13" shape="-1.78,-17.73 -1.60,-21.85"/>
    </edge>
    <edge id=":J3_c0" function="crossing" crossingEdges="B_out B_in">
        <lane id=":J3_c0_0" index="0" allow="pedestrian" speed="2.78" length="6.40" width="4.00" shape="-3.20,-19.85 3.20,-19.85"/>
    </edge>
    <edge id=":J3_w0" function="walkingarea">
        <lane id=":J3_w0_0" index="0" allow="pedestrian" speed="2.78" length="2.64" width="4.00" shape="3.36,-18.11 5.35,-18.26 5.20,-21.85 3.20,-21.85 3.20,-17.85"/>
    </edge>
    <edge id=":J3_w1" function="walkingarea">
        <lane id=":J3_w1_0" index="0" allow="pedestrian" speed="2.78" length="3.06" width="4.00" shape="-3.20,-17.85 -3.20,-21.85 -5.20,-21.85 -5.40,-17.61 -3.41,-17.45"/>
    </edge>
    <edge id=":J8_0" function="internal">
        <lane id=":J8_0_0" index="0" disallow="pedestrian" speed="9.89" length="6.36" shape="-8.60,-0.10 -8.49,-1.94 -8.11,-3.18 -7.39,-4.30 -6.25,-5.80"/>
    </edge>
    <edge id=":J8_1" function="internal">
        <lane id=":J8_1_0" index="0" disallow="pedestrian" speed="8.21" length="6.84" shape="-11.84,-2.23 -10.31,-2.55 -8.87,-3.24 -7.52,-4.33 -6.25,-5.80"/>
    </edge>
    <edge id=":J8_w0" function="walkingarea">
        <lane id=":J8_w0_0" index="0" allow="pedestrian" speed="2.78" length="3.81" width="2.00" shape="-7.96,-6.18 -9.57,-7.36 -12.12,-5.82 -11.96,-3.83 -11.17,-3.96 -10.40,-4.23 -9.65,-4.65 -8.92,-5.21 -8.22,-5.91"/>
    </edge>
    <edge id=":J9_0" function="internal">
        <lane id=":J9_0_0" index="0" disallow="pedestrian" speed="8.21" length="6.88" shape="-6.26,5.84 -7.53,4.35 -8.89,3.25 -10.34,2.55 -11.87,2.23"/>
    </edge>
    <edge id=":J9_1" function="internal">
        <lane id=":J9_1_0" index="0" disallow="pedestrian" speed="9.97" length="6.39" shape="-6.26,5.84 -7.40,4.32 -8.12,3.19 -8.49,1.95 -8.60,0.10"/>
    </edge>
    <edge id=":J9_w0" function="walkingarea">
        <lane id=":J9_w0_0" index="0" allow="pedestrian" speed="2.78" length="3.82" width="2.00" shape="-11.99,3.83 -12.14,5.82 -9.60,7.37 -7.98,6.19 -8.24,5.93 -8.94,5.22 -9.67,4.66 -10.42,4.24 -11.20,3.96"/>
    </edge>
    <edge id=":gneJ1_w0" function="walkingarea">
        <lane id=":gneJ1_w0_0" index="0" allow="pedestrian" speed="2.78" length="8.40" width="2.00" shape="-3.20,200.00 -5.20,200.00 5.20,200.00 3.20,200.00"/>
    </edge>
    <edge id=":gneJ3_w0" function="walkingarea">
        <lane id=":gneJ3_w0_0" index="0" allow="pedestrian" speed="2.78" length="8.40" width="2.00" shape="200.00,3.20 200.00,5.20 200.00,-5.20 200.00,-3.20"/>
    </edge>
    <edge id=":gneJ4_w0" function="walkingarea">
        <lane id=":gneJ4_w0_0" index="0" allow="pedestrian" speed="2.78" length="8.40" width="2.00" shape="3.20,-200.00 5.20,-200.00 -5.20,-200.00 -3.20,-200.00"/>
    </edge>
    <edge id=":gneJ5_w0" function="walkingarea">
        <lane id=":gneJ5_w0_0" index="0" allow="pedestrian" speed="2.78" length="8.40" width="2.00" shape="-200.00,-3.20 -200.00,-5.20 -200.00,5.20 -200.00,3.20"/>
    </edge>

    <edge id="-gneE0.182" from="J11" to="J2" priority="1">
        <lane id="-gneE0.182_0" index="0" allow="pedestrian" speed="13.89" length="5.61" width="2.00" shape="4.82,12.14 4.40,17.53"/>
        <lane id="-gneE0.182_1" index="1" disallow="pedestrian" speed="13.89" length="5.61" shape="2.22,11.94 1.78,17.73"/>
    </edge>
    <edge id="-gneE10" from="J1" to="J12" priority="1">
        <lane id="-gneE10_0" index="0" allow="pedestrian" speed="13.89" length="6.04" width="2.00" shape="18.18,4.35 12.17,4.81"/>
        <lane id="-gneE10_1" index="1" disallow="pedestrian" speed="13.89" length="6.04" shape="17.99,1.76 11.97,2.22"/>
    </edge>
    <edge id="-gneE20" from="J3" to="J14" priority="1">
        <lane id="-gneE20_0" index="0" allow="pedestrian" speed="13.89" length="6.03" width="2.00" shape="4.35,-18.18 4.81,-12.18"/>
        <lane id="-gneE20_1" index="1" disallow="pedestrian" speed="13.89" length="6.03" shape="1.76,-17.99 2.22,-11.98"/>
    </edge>
    <edge id="-gneE3.182" from="J0" to="J8" priority="1">
        <lane id="-gneE3.182_0" index="0" allow="pedestrian" speed="13.89" length="6.17" width="2.00" shape="-18.18,-4.35 -12.04,-4.82"/>
        <lane id="-gneE3.182_1" index="1" disallow="pedestrian" speed="13.89" length="6.17" shape="-17.99,-1.76 -11.84,-2.23"/>
    </edge>
    <edge id="A_in" from="gneJ5" to="J0" priority="1">
        <lane id="A_in_0" index="0" allow="pedestrian" speed="13.89" length="178.15" width="2.00" shape="-200.00,-4.20 -21.85,-4.20"/>
        <lane id="A_in_1" index="1" disallow="pedestrian" speed="13.89" length="178.15" shape="-200.00,-1.60 -21.85,-1.60"/>
    </edge>
    <edge id="A_out" from="J0" to="gneJ5" priority="-1">
        <lane id="A_out_0" index="0" allow="pedestrian" speed="13.89" length="178.15" width="2.00" shape="-21.85,4.20 -200.00,4.20"/>
        <lane id="A_out_1" index="1" disallow="pedestrian" speed="13.89" length="178.15" shape="-21.85,1.60 -200.00,1.60"/>
    </edge>
    <edge id="B_in" from="gneJ4" to="J3" priority="-1">
        <lane id="B_in_0" index="0" allow="pedestrian" speed="13.89" length="178.15" width="2.00" shape="4.20,-200.00 4.20,-21.85"/>
        <lane id="B_in_1" index="1" disallow="pedestrian" speed="13.89" length="178.15" shape="1.60,-200.00 1.60,-21.85"/>
    </edge>
    <edge id="B_out" from="J3" to="gneJ4" priority="-1">
        <lane id="B_out_0" index="0" allow="pedestrian" speed="13.89" length="178.15" width="2.00" shape="-4.20,-21.85 -4.20,-200.00"/>
        <lane id="B_out_1" index="1" disallow="pedestrian" speed="13.89" length="178.15" shape="-1.60,-21.85 -1.60,-200.00"/>
    </edge>
    <edge id="C_in" from="gneJ3" to="J1" priority="-1">
        <lane id="C_in_0" index="0" allow="pedestrian" speed="13.89" length="178.15" width="2.00" shape="200.00,4.20 21.85,4.20"/>
        <lane id="C_in_1" index="1" disallow="pedestrian" speed="13.89" length="178.15" shape="200.00,1.60 21.85,1.60"/>
    </edge>
    <edge id="C_out" from="J1" to="gneJ3" priority="-1">
        <lane id="C_out_0" index="0" allow="pedestrian" speed="13.89" length="178.15" width="2.00" shape="21.85,-4.20 200.00,-4.20"/>
        <lane id="C_out_1" index="1" disallow="pedestrian" speed="13.89" length="178.15" shape="21.85,-1.60 200.00,-1.60"/>
    </edge>
    <edge id="D_in" from="gneJ1" to="J2" priority="-1">
        <lane id="D_in_0" index="0" allow="pedestrian" speed="13.89" length="178.15" width="2.00" shape="-4.20,200.00 -4.20,21.85"/>
        <lane id="D_in_1" index="1" disallow="pedestrian" speed="13.89" length="178.15" shape="-1.60,200.00 -1.60,21.85"/>
    </edge>
    <edge id="D_out" from="J2" to="gneJ1" priority="-1">
        <lane id="D_out_0" index="0" allow="pedestrian" speed="13.89" length="178.15" width="2.00" shape="4.20,21.85 4.20,200.00"/>
        <lane id="D_out_1" index="1" disallow="pedestrian" speed="13.89" length="178.15" shape="1.60,21.85 1.60,200.00"/>
    </edge>
    <edge id="E10" from="J11" to="J10" priority="-1">
        <lane id="E10_0" index="0" disallow="pedestrian" speed="13.89" length="0.20" shape="0.10,8.60 -0.10,8.60"/>
    </edge>
    <edge id="E3" from="J10" to="J9" priority="3" shape="-1.00,7.00 -3.25,6.14 -5.00,4.85 -6.25,3.14 -7.00,1.00">
        <lane id="E3_0" index="0" allow="pedestrian" speed="13.89" length="1.76" width="2.00" shape="-6.77,8.77 -8.01,7.85 -8.79,6.78"/>
        <lane id="E3_1" index="1" disallow="pedestrian" speed="13.89" length="1.76" shape="-5.78,6.26 -6.15,5.99 -6.26,5.84"/>
    </edge>
    <edge id="E4" from="J9" to="J8" priority="-1">
        <lane id="E4_0" index="0" disallow="pedestrian" speed="13.89" length="0.20" shape="-8.60,0.10 -8.60,-0.10"/>
    </edge>
    <edge id="E5" from="J8" to="J15" priority="3" shape="-7.00,-1.00 -6.20,-3.17 -4.93,-4.89 -3.20,-6.17 -1.00,-7.00">
        <lane id="E5_0" index="0" allow="pedestrian" speed="13.89" length="1.75" width="2.00" shape="-8.76,-6.77 -7.93,-7.89 -6.77,-8.76"/>
        <lane id="E5_1" index="1" disallow="pedestrian" speed="13.89" length="1.75" shape="-6.25,-5.80 -6.07,-6.03 -5.78,-6.25"/>
    </edge>
    <edge id="E6" from="J15" to="J14" priority="-1">
        <lane id="E6_0" index="0" disallow="pedestrian" speed="13.89" length="0.20" shape="-0.10,-8.60 0.10,-8.60"/>
    </edge>
    <edge id="E7" from="J14" to="J13" priority="3" shape="1.00,-7.00 3.35,-6.21 5.13,-4.95 6.35,-3.21 7.00,-1.00">
        <lane id="E7_0" index="0" allow="pedestrian" speed="13.89" length="1.81" width="2.00" shape="6.80,-8.91 8.15,-7.96 8.94,-6.83"/>
        <lane id="E7_1" index="1" disallow="pedestrian" speed="13.89" length="1.81" shape="5.91,-6.36 6.28,-6.10 6.36,-5.98"/>
    </edge>
    <edge id="E8" from="J13" to="J12" priority="-1">
        <lane id="E8_0" index="0" disallow="pedestrian" speed="13.89" length="0.20" shape="8.60,-0.10 8.60,0.10"/>
    </edge>
    <edge id="E9" from="J12" to="J11" priority="3" shape="7.00,1.00 6.31,3.20 5.08,4.94 3.31,6.20 1.00,7.00">
        <lane id="E9_0" index="0" allow="pedestrian" speed="13.89" length="1.80" width="2.00" shape="8.90,6.81 8.10,7.95 6.80,8.87"/>
        <lane id="E9_1" index="1" disallow="pedestrian" speed="13.89" length="1.80" shape="6.33,5.94 6.23,6.09 5.88,6.34"/>
    </edge>
    <edge id="gneE0.177" from="J2" to="J10" priority="1">
        <lane id="gneE0.177_0" index="0" allow="pedestrian" speed="13.89" length="6.17" width="2.00" shape="-4.35,18.18 -4.82,12.04"/>
        <lane id="gneE0.177_1" index="1" disallow="pedestrian" speed="13.89" length="6.17" shape="-1.76,17.99 -2.23,11.84"/>
    </edge>
    <edge id="gneE10.7" from="J13" to="J1" priority="1">
        <lane id="gneE10.7_0" index="0" allow="pedestrian" speed="13.89" length="5.53" width="2.00" shape="12.22,-4.81 17.53,-4.40"/>
        <lane id="gneE10.7_1" index="1" disallow="pedestrian" speed="13.89" length="5.53" shape="12.02,-2.22 17.73,-1.78"/>
    </edge>
    <edge id="gneE20.8" from="J15" to="J3" priority="1">
        <lane id="gneE20.8_0" index="0" allow="pedestrian" speed="13.89" length="5.71" width="2.00" shape="-4.83,-12.03 -4.40,-17.53"/>
        <lane id="gneE20.8_1" index="1" disallow="pedestrian" speed="13.89" length="5.71" shape="-2.23,-11.83 -1.78,-17.73"/>
    </edge>
    <edge id="gneE3.187" from="J9" to="J0" priority="1">
        <lane id="gneE3.187_0" index="0" allow="pedestrian" speed="13.89" length="5.68" width="2.00" shape="-12.07,4.82 -17.53,4.40"/>
        <lane id="gneE3.187_1" index="1" disallow="pedestrian" speed="13.89" length="5.68" shape="-11.87,2.23 -17.73,1.78"/>
    </edge>

    <junction id="J0" type="priority" x="-20.00" y="0.00" incLanes="gneE3.187_0 gneE3.187_1 A_in_0 A_in_1 :J0_w0_0" intLanes=":J0_0_0 :J0_1_0 :J0_c0_0" shape="-17.46,5.41 -18.26,-5.35 -21.85,-5.20 -21.85,5.20">
        <request index="0" response="000" foes="100" cont="0"/>
        <request index="1" response="000" foes="100" cont="0"/>
        <request index="2" response="011" foes="011" cont="0"/>
    </junction>
    <junction id="J1" type="priority" x="20.00" y="0.00" incLanes="C_in_0 C_in_1 gneE10.7_0 gneE10.7_1 :J1_w1_0" intLanes=":J1_0_0 :J1_0_1 :J1_2_0 :J1_c0_0" shape="21.85,5.20 21.85,-5.20 17.46,-5.41 18.26,5.35">
        <request index="0" response="0000" foes="1000" cont="0"/>
        <request index="1" response="0000" foes="1000" cont="0"/>
        <request index="2" response="0000" foes="1000" cont="0"/>
        <request index="3" response="0111" foes="0111" cont="0"/>
    </junction>
    <junction id="J10" type="priority" x="-1.00" y="7.00" incLanes="gneE0.177_0 gneE0.177_1 E10_0" intLanes=":J10_0_0 :J10_1_0" shape="-5.82,12.12 -0.64,11.72 -0.54,10.87 -0.35,10.58 -0.07,10.37 0.29,10.24 0.75,10.20 0.75,7.00 -1.76,6.74 -2.81,6.41 -3.73,5.96 -4.50,5.37 -5.14,4.65 -7.14,9.73 -6.46,10.39 -6.21,10.77 -6.02,11.19 -5.89,11.63">
        <request index="0" response="10" foes="10" cont="0"/>
        <request index="1" response="00" foes="01" cont="0"/>
    </junction>
    <junction id="J11" type="priority" x="1.00" y="7.00" incLanes="E9_0 E9_1" intLanes=":J11_0_0 :J11_1_0" shape="7.15,9.85 5.27,4.67 3.87,5.96 2.94,6.42 1.86,6.74 0.63,6.94 -0.75,7.00 -0.75,10.20 0.07,10.38 0.35,10.60 0.53,10.92 0.63,11.32 0.63,11.82 5.81,12.21 6.01,11.29 6.21,10.87 6.46,10.50 6.77,10.16">
        <request index="0" response="00" foes="00" cont="0"/>
        <request index="1" response="00" foes="00" cont="0"/>
    </junction>
    <junction id="J12" type="priority" x="7.00" y="1.00" incLanes="-gneE10_0 -gneE10_1 E8_0" intLanes=":J12_0_0 :J12_1_0" shape="12.25,5.81 11.85,0.63 10.93,0.53 10.61,0.35 10.38,0.07 10.25,-0.29 10.20,-0.75 7.00,-0.75 6.73,1.85 6.38,2.93 5.91,3.87 5.29,4.67 4.54,5.33 9.88,7.15 10.53,6.46 10.91,6.20 11.32,6.01 11.76,5.88">
        <request index="0" response="10" foes="10" cont="0"/>
        <request index="1" response="00" foes="01" cont="0"/>
    </junction>
    <junction id="J13" type="priority" x="7.00" y="-1.00" incLanes="E7_0 E7_1" intLanes=":J13_0_0 :J13_1_0" shape="7.00,0.75 10.20,0.75 10.39,-0.07 10.62,-0.35 10.95,-0.53 11.38,-0.62 11.90,-0.62 12.29,-5.81 11.37,-6.01 10.96,-6.20 10.58,-6.46 10.24,-6.77 9.94,-7.15 4.52,-5.38 5.90,-3.92 6.38,-2.97 6.72,-1.88 6.93,-0.64">
        <request index="0" response="00" foes="00" cont="0"/>
        <request index="1" response="00" foes="00" cont="0"/>
    </junction>
    <junction id="J14" type="priority" x="1.00" y="-7.00" incLanes="-gneE20_0 -gneE20_1 E6_0" intLanes=":J14_0_0 :J14_1_0" shape="5.32,-4.69 7.15,-9.89 6.46,-10.54 6.20,-10.91 6.01,-11.33 5.88,-11.77 5.81,-12.25 0.63,-11.85 0.53,-10.94 0.35,-10.61 0.07,-10.38 -0.29,-10.25 -0.75,-10.20 -0.75,-7.00 1.90,-6.74 2.99,-6.42 3.92,-5.97 4.70,-5.39">
        <request index="0" response="10" foes="10" cont="0"/>
        <request index="1" response="00" foes="01" cont="0"/>
    </junction>
    <junction id="J15" type="priority" x="-1.00" y="-7.00" incLanes="E5_0 E5_1" intLanes=":J15_0_0 :J15_1_0" shape="0.75,-7.00 0.75,-10.20 -0.07,-10.37 -0.35,-10.58 -0.54,-10.87 -0.63,-11.25 -0.64,-11.71 -5.82,-12.11 -6.02,-11.18 -6.21,-10.76 -6.46,-10.38 -6.77,-10.04 -7.14,-9.72 -5.14,-4.61 -3.70,-5.94 -2.78,-6.40 -1.74,-6.73 -0.56,-6.93">
        <request index="0" response="00" foes="00" cont="0"/>
        <request index="1" response="00" foes="00" cont="0"/>
    </junction>
    <junction id="J2" type="priority" x="0.00" y="20.00" incLanes="D_in_0 D_in_1 -gneE0.182_0 -gneE0.182_1 :J2_w1_0" intLanes=":J2_0_0 :J2_0_1 :J2_2_0 :J2_c0_0" shape="-5.20,21.85 5.20,21.85 5.41,17.46 -5.35,18.26">
        <request index="0" response="0000" foes="1000" cont="0"/>
        <request index="1" response="0000" foes="1000" cont="0"/>
        <request index="2" response="0000" foes="1000" cont="0"/>
        <request index="3" response="0111" foes="0111" cont="0"/>
    </junction>
    <junction id="J3" type="priority" x="0.00" y="-20.00" incLanes="B_in_0 B_in_1 gneE20.8_0 gneE20.8_1 :J3_w1_0" intLanes=":J3_0_0 :J3_0_1 :J3_2_0 :J3_c0_0" shape="-5.41,-17.46 5.35,-18.26 5.20,-21.85 -5.20,-21.85">
        <request index="0" response="0000" foes="1000" cont="0"/>
        <request index="1" response="0000" foes="1000" cont="0"/>
        <request index="2" response="0000" foes="1000" cont="0"/>
        <request index="3" response="0111" foes="0111" cont="0"/>
    </junction>
    <junction id="J8" type="priority" x="-7.00" y="-1.00" incLanes="E4_0 -gneE3.182_0 -gneE3.182_1" intLanes=":J8_0_0 :J8_1_0" shape="-10.20,0.75 -7.00,0.75 -6.73,-1.73 -6.39,-2.78 -5.92,-3.70 -5.32,-4.49 -4.57,-5.15 -9.73,-7.14 -10.39,-6.46 -10.77,-6.21 -11.19,-6.02 -11.63,-5.89 -12.12,-5.82 -11.72,-0.64 -10.87,-0.54 -10.58,-0.35 -10.37,-0.07 -10.24,0.29">
        <request index="0" response="00" foes="10" cont="0"/>
        <request index="1" response="01" foes="01" cont="0"/>
    </junction>
    <junction id="J9" type="priority" x="-7.00" y="1.00" incLanes="E3_0 E3_1" intLanes=":J9_0_0 :J9_1_0" shape="-9.76,7.15 -4.53,5.20 -5.90,3.73 -6.38,2.80 -6.73,1.75 -6.93,0.56 -7.00,-0.75 -10.20,-0.75 -10.37,0.07 -10.59,0.35 -10.89,0.53 -11.27,0.63 -11.75,0.63 -12.14,5.82 -11.21,6.02 -10.80,6.21 -10.42,6.46 -10.08,6.77">
        <request index="0" response="00" foes="00" cont="0"/>
        <request index="1" response="00" foes="00" cont="0"/>
    </junction>
    <junction id="gneJ1" type="dead_end" x="0.00" y="200.00" incLanes="D_out_0 D_out_1" intLanes="" shape="0.00,200.00 5.20,200.00 0.00,200.00"/>
    <junction id="gneJ3" type="dead_end" x="200.00" y="0.00" incLanes="C_out_0 C_out_1" intLanes="" shape="200.00,0.00 200.00,-5.20 200.00,0.00"/>
    <junction id="gneJ4" type="dead_end" x="0.00" y="-200.00" incLanes="B_out_0 B_out_1" intLanes="" shape="0.00,-200.00 -5.20,-200.00 0.00,-200.00"/>
    <junction id="gneJ5" type="dead_end" x="-200.00" y="0.00" incLanes="A_out_0 A_out_1" intLanes="" shape="-200.00,0.00 -200.00,5.20 -200.00,0.00"/>

    <connection from="-gneE0.182" to="D_out" fromLane="1" toLane="1" via=":J2_2_0" dir="s" state="M"/>
    <connection from="-gneE10" to="E9" fromLane="1" toLane="1" via=":J12_0_0" dir="r" state="m" visibility="9.00"/>
    <connection from="-gneE20" to="E7" fromLane="1" toLane="1" via=":J14_0_0" dir="r" state="m" visibility="9.00"/>
    <connection from="-gneE3.182" to="E5" fromLane="1" toLane="1" via=":J8_1_0" dir="r" state="m" visibility="9.00"/>
    <connection from="A_in" to="-gneE3.182" fromLane="1" toLane="1" via=":J0_1_0" dir="s" state="M"/>
    <connection from="B_in" to="-gneE20" fromLane="0" toLane="0" via=":J3_0_0" dir="s" state="M"/>
    <connection from="B_in" to="-gneE20" fromLane="1" toLane="1" via=":J3_0_1" dir="s" state="M"/>
    <connection from="C_in" to="-gneE10" fromLane="0" toLane="0" via=":J1_0_0" dir="s" state="M"/>
    <connection from="C_in" to="-gneE10" fromLane="1" toLane="1" via=":J1_0_1" dir="s" state="M"/>
    <connection from="D_in" to="gneE0.177" fromLane="0" toLane="0" via=":J2_0_0" dir="s" state="M"/>
    <connection from="D_in" to="gneE0.177" fromLane="1" toLane="1" via=":J2_0_1" dir="s" state="M"/>
    <connection from="E10" to="E3" fromLane="0" toLane="1" via=":J10_1_0" dir="s" state="M"/>
    <connection from="E3" to="gneE3.187" fromLane="1" toLane="1" via=":J9_0_0" dir="r" state="M"/>
    <connection from="E3" to="E4" fromLane="1" toLane="0" via=":J9_1_0" dir="s" state="M"/>
    <connection from="E4" to="E5" fromLane="0" toLane="1" via=":J8_0_0" dir="s" state="M"/>
    <connection from="E5" to="gneE20.8" fromLane="1" toLane="1" via=":J15_0_0" dir="r" state="M"/>
    <connection from="E5" to="E6" fromLane="1" toLane="0" via=":J15_1_0" dir="s" state="M"/>
    <connection from="E6" to="E7" fromLane="0" toLane="1" via=":J14_1_0" dir="s" state="M"/>
    <connection from="E7" to="gneE10.7" fromLane="1" toLane="1" via=":J13_0_0" dir="r" state="M"/>
    <connection from="E7" to="E8" fromLane="1" toLane="0" via=":J13_1_0" dir="s" state="M"/>
    <connection from="E8" to="E9" fromLane="0" toLane="1" via=":J12_1_0" dir="s" state="M"/>
    <connection from="E9" to="-gneE0.182" fromLane="1" toLane="1" via=":J11_0_0" dir="r" state="M"/>
    <connection from="E9" to="E10" fromLane="1" toLane="0" via=":J11_1_0" dir="s" state="M"/>
    <connection from="gneE0.177" to="E3" fromLane="1" toLane="1" via=":J10_0_0" dir="r" state="m" visibility="9.00"/>
    <connection from="gneE10.7" to="C_out" fromLane="1" toLane="1" via=":J1_2_0" dir="s" state="M"/>
    <connection from="gneE20.8" to="B_out" fromLane="1" toLane="1" via=":J3_2_0" dir="s" state="M"/>
    <connection from="gneE3.187" to="A_out" fromLane="1" toLane="1" via=":J0_0_0" dir="s" state="M"/>

    <connection from=":J0_0" to="A_out" fromLane="0" toLane="1" dir="s" state="M"/>
    <connection from=":J0_1" to="-gneE3.182" fromLane="0" toLane="1" dir="s" state="M"/>
    <connection from=":J1_0" to="-gneE10" fromLane="0" toLane="0" dir="s" state="M"/>
    <connection from=":J1_0" to="-gneE10" fromLane="1" toLane="1" dir="s" state="M"/>
    <connection from=":J1_2" to="C_out" fromLane="0" toLane="1" dir="s" state="M"/>
    <connection from=":J10_0" to="E3" fromLane="0" toLane="1" dir="r" state="M"/>
    <connection from=":J10_1" to="E3" fromLane="0" toLane="1" dir="s" state="M"/>
    <connection from=":J11_0" to="-gneE0.182" fromLane="0" toLane="1" dir="r" state="M"/>