<?xml version="1.0" encoding="UTF-8"?>

<!-- generated on 2025-01-09 09:55:04 by Eclipse SUMO netedit Version 1.19.0
<configuration xmlns:xsi="http://www.w3.org/2001/XMLSchema-instance" xsi:noNamespaceSchemaLocation="http://sumo.dlr.de/xsd/neteditConfiguration.xsd">

    <input>
        <sumo-net-file value="C:\Users\VargaBalazs\Desktop\Projektek\EKOP-multimodal\Scenarios\Scenarios\under_construction\Two_lane_signalized_full_green\TwoLaneSignalized_v2.xml"/>
    </input>

    <output>
        <output-file value="C:\Users\VargaBalazs\Desktop\Projektek\EKOP-multimodal\Scenarios\Scenarios\under_construction\Two_lane_signalized_full_green\TwoLaneSignalized_v2.xml"/>
    </output>

    <processing>
        <geometry.min-radius.fix.railways value="false"/>
        <geometry.max-grade.fix value="false"/>
        <offset.disable-normalization value="true"/>
        <lefthand value="0"/>
    </processing>

    <junctions>
        <no-turnarounds value="true"/>
        <junctions.corner-detail value="5"/>
        <junctions.limit-turn-speed value="5.50"/>
        <rectangular-lane-cut value="0"/>
    </junctions>

    <pedestrian>
        <walkingareas value="0"/>
    </pedestrian>

</configuration>
-->

<net version="1.16" junctionCornerDetail="5" limitTurnSpeed="5.50" xmlns:xsi="http://www.w3.org/2001/XMLSchema-instance" xsi:noNamespaceSchemaLocation="http://sumo.dlr.de/xsd/net_file.xsd">

    <location netOffset="0.00,0.00" convBoundary="-200.00,-200.00,200.00,200.00" origBoundary="-10000000000.00,-10000000000.00,10000000000.00,10000000000.00" projParameter="!"/>

    <edge id=":gneJ1_0" function="internal">
        <lane id=":gneJ1_0_0" index="0" speed="13.89" length="8.54" shape="-4.80,24.00 -5.30,21.54 -6.40,20.00 -7.50,18.46 -8.00,16.00"/>
        <lane id=":gneJ1_0_1" index="1" speed="13.89" length="8.54" shape="-1.60,24.00 -2.10,21.54 -3.20,20.00 -4.30,18.46 -4.80,16.00"/>
        <lane id=":gneJ1_0_2" index="2" speed="13.89" length="8.54" shape="-1.60,24.00 -1.60,16.00"/>
    </edge>
    <edge id=":gneJ1_3" function="internal">
        <lane id=":gneJ1_3_0" index="0" speed="13.89" length="8.00" shape="4.80,16.00 4.80,24.00"/>
        <lane id=":gneJ1_3_1" index="1" speed="13.89" length="8.00" shape="1.60,16.00 1.60,24.00"/>
    </edge>
    <edge id=":gneJ2_0" function="internal">
        <lane id=":gneJ2_0_0" index="0" speed="7.33" length="11.73" shape="-8.00,13.60 -8.35,9.75 -9.40,7.00 -11.15,5.35 -13.60,4.80"/>
    </edge>
    <edge id=":gneJ2_1" function="internal">
        <lane id=":gneJ2_1_0" index="0" speed="13.89" length="27.43" shape="-8.00,13.60 -7.50,4.98 -6.40,-1.39 -5.30,-7.06 -4.80,-13.60"/>
        <lane id=":gneJ2_1_1" index="1" speed="13.89" length="27.43" shape="-4.80,13.60 -4.30,4.98 -3.20,-1.39 -2.10,-7.06 -1.60,-13.60"/>
    </edge>
    <edge id=":gneJ2_3" function="internal">
        <lane id=":gneJ2_3_0" index="0" speed="10.36" length="7.16" shape="-1.60,13.60 -0.65,6.95 -0.42,6.57"/>
    </edge>
    <edge id=":gneJ2_16" function="internal">
        <lane id=":gneJ2_16_0" index="0" speed="10.36" length="17.36" shape="-0.42,6.57 2.20,2.20 6.95,-0.65 13.60,-1.60"/>
    </edge>
    <edge id=":gneJ2_4" function="internal">
        <lane id=":gneJ2_4_0" index="0" speed="7.33" length="11.73" shape="13.60,8.00 9.75,8.35 7.00,9.40 5.35,11.15 4.80,13.60"/>
    </edge>
    <edge id=":gneJ2_5" function="internal">
        <lane id=":gneJ2_5_0" index="0" speed="13.89" length="27.43" shape="13.60,8.00 4.98,7.50 -1.39,6.40 -7.06,5.30 -13.60,4.80"/>
        <lane id=":gneJ2_5_1" index="1" speed="13.89" length="27.43" shape="13.60,4.80 4.98,4.30 -1.39,3.20 -7.06,2.10 -13.60,1.60"/>
    </edge>
    <edge id=":gneJ2_7" function="internal">
        <lane id=":gneJ2_7_0" index="0" speed="10.36" length="7.16" shape="13.60,1.60 6.95,0.65 6.57,0.42"/>
    </edge>
    <edge id=":gneJ2_17" function="internal">
        <lane id=":gneJ2_17_0" index="0" speed="10.36" length="17.36" shape="6.57,0.42 2.20,-2.20 -0.65,-6.95 -1.60,-13.60"/>
    </edge>
    <edge id=":gneJ2_8" function="internal">
        <lane id=":gneJ2_8_0" index="0" speed="7.33" length="11.73" shape="8.00,-13.60 8.35,-9.75 9.40,-7.00 11.15,-5.35 13.60,-4.80"/>
    </edge>
    <edge id=":gneJ2_9" function="internal">
        <lane id=":gneJ2_9_0" index="0" speed="13.89" length="27.43" shape="8.00,-13.60 7.50,-4.98 6.40,1.39 5.30,7.06 4.80,13.60"/>
        <lane id=":gneJ2_9_1" index="1" speed="13.89" length="27.43" shape="4.80,-13.60 4.30,-4.98 3.20,1.39 2.10,7.06 1.60,13.60"/>
    </edge>
    <edge id=":gneJ2_11" function="internal">
        <lane id=":gneJ2_11_0" index="0" speed="10.36" length="7.16" shape="1.60,-13.60 0.65,-6.95 0.42,-6.57"/>
    </edge>
    <edge id=":gneJ2_18" function="internal">
        <lane id=":gneJ2_18_0" index="0" speed="10.36" length="17.36" shape="0.42,-6.57 -2.20,-2.20 -6.95,0.65 -13.60,1.60"/>
    </edge>
    <edge id=":gneJ2_12" function="internal">
        <lane id=":gneJ2_12_0" index="0" speed="7.33" length="11.73" shape="-13.60,-8.00 -9.75,-8.35 -7.00,-9.40 -5.35,-11.15 -4.80,-13.60"/>
    </edge>
    <edge id=":gneJ2_13" function="internal">
        <lane id=":gneJ2_13_0" index="0" speed="13.89" length="27.43" shape="-13.60,-8.00 -4.98,-7.50 1.39,-6.40 7.06,-5.30 13.60,-4.80"/>
        <lane id=":gneJ2_13_1" index="1" speed="13.89" length="27.43" shape="-13.60,-4.80 -4.98,-4.30 1.39,-3.20 7.06,-2.10 13.60,-1.60"/>
    </edge>
    <edge id=":gneJ2_15" function="internal">
        <lane id=":gneJ2_15_0" index="0" speed="10.36" length="7.16" shape="-13.60,-1.60 -6.95,-0.65 -6.57,-0.42"/>
    </edge>
    <edge id=":gneJ2_19" function="internal">
        <lane id=":gneJ2_19_0" index="0" speed="10.36" length="17.36" shape="-6.57,-0.42 -2.20,2.20 0.65,6.95 1.60,13.60"/>
    </edge>
    <edge id=":gneJ3_0" function="internal">
        <lane id=":gneJ3_0_0" index="0" speed="13.89" length="8.54" shape="24.00,4.80 21.54,5.30 20.00,6.40 18.46,7.50 16.00,8.00"/>
        <lane id=":gneJ3_0_1" index="1" speed="13.89" length="8.54" shape="24.00,1.60 21.54,2.10 20.00,3.20 18.46,4.30 16.00,4.80"/>
        <lane id=":gneJ3_0_2" index="2" speed="13.89" length="8.54" shape="24.00,1.60 16.00,1.60"/>
    </edge>
    <edge id=":gneJ3_3" function="internal">
        <lane id=":gneJ3_3_0" index="0" speed="13.89" length="8.00" shape="16.00,-4.80 24.00,-4.80"/>
        <lane id=":gneJ3_3_1" index="1" speed="13.89" length="8.00" shape="16.00,-1.60 24.00,-1.60"/>
    </edge>
    <edge id=":gneJ4_0" function="internal">
        <lane id=":gneJ4_0_0" index="0" speed="13.89" length="8.00" shape="-4.80,-16.00 -4.80,-24.00"/>
        <lane id=":gneJ4_0_1" index="1" speed="13.89" length="8.00" shape="-1.60,-16.00 -1.60,-24.00"/>
    </edge>
    <edge id=":gneJ4_2" function="internal">
        <lane id=":gneJ4_2_0" index="0" speed="13.89" length="8.54" shape="4.80,-24.00 5.30,-21.54 6.40,-20.00 7.50,-18.46 8.00,-16.00"/>
        <lane id=":gneJ4_2_1" index="1" speed="13.89" length="8.54" shape="1.60,-24.00 2.10,-21.54 3.20,-20.00 4.30,-18.46 4.80,-16.00"/>
        <lane id=":gneJ4_2_2" index="2" speed="13.89" length="8.54" shape="1.60,-24.00 1.60,-16.00"/>
    </edge>
    <edge id=":gneJ5_0" function="internal">
        <lane id=":gneJ5_0_0" index="0" speed="13.89" length="8.00" shape="-16.00,4.80 -24.00,4.80"/>
        <lane id=":gneJ5_0_1" index="1" speed="13.89" length="8.00" shape="-16.00,1.60 -24.00,1.60"/>
    </edge>
    <edge id=":gneJ5_2" function="internal">
        <lane id=":gneJ5_2_0" index="0" speed="13.89" length="8.54" shape="-24.00,-4.80 -21.54,-5.30 -20.00,-6.40 -18.46,-7.50 -16.00,-8.00"/>
        <lane id=":gneJ5_2_1" index="1" speed="13.89" length="8.54" shape="-24.00,-1.60 -21.54,-2.10 -20.00,-3.20 -18.46,-4.30 -16.00,-4.80"/>
        <lane id=":gneJ5_2_2" index="2" speed="13.89" length="8.54" shape="-24.00,-1.60 -16.00,-1.60"/>
    </edge>

    <edge id="-gneE0" from="gneJ2" to="gneJ1" priority="-1">
        <lane id="-gneE0_0" index="0" speed="13.89" length="2.40" shape="4.80,13.60 4.80,16.00"/>
        <lane id="-gneE0_1" index="1" speed="13.89" length="2.40" shape="1.60,13.60 1.60,16.00"/>
    </edge>
    <edge id="-gneE1" from="gneJ3" to="gneJ2" priority="-1">
        <lane id="-gneE1_0" index="0" speed="13.89" length="2.40" shape="16.00,8.00 13.60,8.00"/>
        <lane id="-gneE1_1" index="1" speed="13.89" length="2.40" shape="16.00,4.80 13.60,4.80"/>
        <lane id="-gneE1_2" index="2" speed="13.89" length="2.40" shape="16.00,1.60 13.60,1.60"/>
    </edge>
    <edge id="-gneE2" from="gneJ4" to="gneJ2" priority="-1">
        <lane id="-gneE2_0" index="0" speed="13.89" length="2.40" shape="8.00,-16.00 8.00,-13.60"/>
        <lane id="-gneE2_1" index="1" speed="13.89" length="2.40" shape="4.80,-16.00 4.80,-13.60"/>
        <lane id="-gneE2_2" index="2" speed="13.89" length="2.40" shape="1.60,-16.00 1.60,-13.60"/>
    </edge>
    <edge id="-gneE3" from="gneJ5" to="gneJ2" priority="-1">
        <lane id="-gneE3_0" index="0" speed="13.89" length="2.40" shape="-16.00,-8.00 -13.60,-8.00"/>
        <lane id="-gneE3_1" index="1" speed="13.89" length="2.40" shape="-16.00,-4.80 -13.60,-4.80"/>
        <lane id="-gneE3_2" index="2" speed="13.89" length="2.40" shape="-16.00,-1.60 -13.60,-1.60"/>
    </edge>
    <edge id="A_in" from="gneJ8" to="gneJ5" priority="-1">
        <lane id="A_in_0" index="0" speed="13.89" length="176.00" shape="-200.00,-4.80 -24.00,-4.80"/>
        <lane id="A_in_1" index="1" speed="13.89" length="176.00" shape="-200.00,-1.60 -24.00,-1.60"/>
    </edge>
    <edge id="A_out" from="gneJ5" to="gneJ8" priority="-1">
        <lane id="A_out_0" index="0" speed="13.89" length="176.00" shape="-24.00,4.80 -200.00,4.80"/>
        <lane id="A_out_1" index="1" speed="13.89" length="176.00" shape="-24.00,1.60 -200.00,1.60"/>
    </edge>
    <edge id="B_in" from="gneJ6" to="gneJ4" priority="-1">
        <lane id="B_in_0" index="0" speed="13.89" length="176.00" shape="4.80,-200.00 4.80,-24.00"/>
        <lane id="B_in_1" index="1" speed="13.89" length="176.00" shape="1.60,-200.00 1.60,-24.00"/>
    </edge>
    <edge id="B_out" from="gneJ4" to="gneJ6" priority="-1">
        <lane id="B_out_0" index="0" speed="13.89" length="176.00" shape="-4.80,-24.00 -4.80,-200.00"/>
        <lane id="B_out_1" index="1" speed="13.89" length="176.00" shape="-1.60,-24.00 -1.60,-200.00"/>
    </edge>
    <edge id="C_in" from="gneJ7" to="gneJ3" priority="-1">
        <lane id="C_in_0" index="0" speed="13.89" length="176.00" shape="200.00,4.80 24.00,4.80"/>
        <lane id="C_in_1" index="1" speed="13.89" length="176.00" shape="200.00,1.60 24.00,1.60"/>
    </edge>
    <edge id="C_out" from="gneJ3" to="gneJ7" priority="-1">
        <lane id="C_out_0" index="0" speed="13.89" length="176.00" shape="24.00,-4.80 200.00,-4.80"/>
        <lane id="C_out_1" index="1" speed="13.89" length="176.00" shape="24.00,-1.60 200.00,-1.60"/>
    </edge>
    <edge id="D_in" from="gneJ10" to="gneJ1" priority="-1">
        <lane id="D_in_0" index="0" speed="13.89" length="176.00" shape="-4.80,200.00 -4.80,24.00"/>
        <lane id="D_in_1" index="1" speed="13.89" length="176.00" shape="-1.60,200.00 -1.60,24.00"/>
    </edge>
    <edge id="D_out" from="gneJ1" to="gneJ10" priority="-1">
        <lane id="D_out_0" index="0" speed="13.89" length="176.00" shape="4.80,24.00 4.80,200.00"/>
        <lane id="D_out_1" index="1" speed="13.89" length="176.00" shape="1.60,24.00 1.60,200.00"/>
    </edge>
    <edge id="gneE0" from="gneJ1" to="gneJ2" priority="-1">
        <lane id="gneE0_0" index="0" speed="13.89" length="2.40" shape="-8.00,16.00 -8.00,13.60"/>
        <lane id="gneE0_1" index="1" speed="13.89" length="2.40" shape="-4.80,16.00 -4.80,13.60"/>
        <lane id="gneE0_2" index="2" speed="13.89" length="2.40" shape="-1.60,16.00 -1.60,13.60"/>
    </edge>
    <edge id="gneE1" from="gneJ2" to="gneJ3" priority="-1">
        <lane id="gneE1_0" index="0" speed="13.89" length="2.40" shape="13.60,-4.80 16.00,-4.80"/>
        <lane id="gneE1_1" index="1" speed="13.89" length="2.40" shape="13.60,-1.60 16.00,-1.60"/>
    </edge>
    <edge id="gneE2" from="gneJ2" to="gneJ4" priority="-1">
        <lane id="gneE2_0" index="0" speed="13.89" length="2.40" shape="-4.80,-13.60 -4.80,-16.00"/>
        <lane id="gneE2_1" index="1" speed="13.89" length="2.40" shape="-1.60,-13.60 -1.60,-16.00"/>
    </edge>
    <edge id="gneE3" from="gneJ2" to="gneJ5" priority="-1">
        <lane id="gneE3_0" index="0" speed="13.89" length="2.40" shape="-13.60,4.80 -16.00,4.80"/>
        <lane id="gneE3_1" index="1" speed="13.89" length="2.40" shape="-13.60,1.60 -16.00,1.60"/>
    </edge>

    <tlLogic id="gneJ2" type="static" programID="0" offset="0">
        <phase duration="20" state="GGGgrrrrGGGgrrrr"/>
        <phase duration="2.50"  state="yyygrrrryyygrrrr"/>
        <phase duration="20" state="rrrGrrrrrrrGrrrr"/>
        <phase duration="2.50"  state="rrryrrrrrrryrrrr"/>
        <phase duration="20" state="rrrrGGGgrrrrGGGg"/>
        <phase duration="2.50"  state="rrrryyygrrrryyyg"/>
        <phase duration="20" state="rrrrrrrGrrrrrrrG"/>
        <phase duration="2.50"  state="rrrrrrryrrrrrrry"/>
    </tlLogic>

    <junction id="gneJ1" type="priority" x="0.00" y="20.00" incLanes="D_in_0 D_in_1 -gneE0_0 -gneE0_1" intLanes=":gneJ1_0_0 :gneJ1_0_1 :gneJ1_0_2 :gneJ1_3_0 :gneJ1_3_1" shape="-6.40,24.00 6.40,24.00 6.40,16.00 -9.60,16.00 -8.77,19.03 -7.23,20.97 -6.64,22.21">
        <request index="0" response="00000" foes="00000" cont="0"/>
        <request index="1" response="00000" foes="00000" cont="0"/>
        <request index="2" response="00000" foes="00000" cont="0"/>
        <request index="3" response="00000" foes="00000" cont="0"/>
        <request index="4" response="00000" foes="00000" cont="0"/>
    </junction>
    <junction id="gneJ10" type="dead_end" x="0.00" y="200.00" incLanes="D_out_0 D_out_1" intLanes="" shape="0.00,200.00 6.40,200.00 0.00,200.00"/>
    <junction id="gneJ2" type="traffic_light" x="0.00" y="0.00" incLanes="gneE0_0 gneE0_1 gneE0_2 -gneE1_0 -gneE1_1 -gneE1_2 -gneE2_0 -gneE2_1 -gneE2_2 -gneE3_0 -gneE3_1 -gneE3_2" intLanes=":gneJ2_0_0 :gneJ2_1_0 :gneJ2_1_1 :gneJ2_16_0 :gneJ2_4_0 :gneJ2_5_0 :gneJ2_5_1 :gneJ2_17_0 :gneJ2_8_0 :gneJ2_9_0 :gneJ2_9_1 :gneJ2_18_0 :gneJ2_12_0 :gneJ2_13_0 :gneJ2_13_1 :gneJ2_19_0" shape="-9.60,13.60 6.40,13.60 7.20,11.38 8.20,10.60 9.60,10.04 11.40,9.71 13.60,9.60 13.60,-6.40 11.38,-7.20 10.60,-8.20 10.04,-9.60 9.71,-11.40 9.60,-13.60 -6.40,-13.60 -7.20,-11.38 -8.20,-10.60 -9.60,-10.04 -11.40,-9.71 -13.60,-9.60 -13.60,6.40 -11.38,7.20 -10.60,8.20 -10.04,9.60 -9.71,11.40">
        <request index="0"  response="0000000000000000" foes="0000000001100000" cont="0"/>
        <request index="1"  response="1000000010000000" foes="1111100011100000" cont="0"/>
        <request index="2"  response="1000000010000000" foes="1111100011100000" cont="0"/>
        <request index="3"  response="1000011010000000" foes="1110011011100000" cont="1"/>
        <request index="4"  response="0000011000000000" foes="0000011000000000" cont="0"/>
        <request index="5"  response="0000111000001111" foes="1000111000001111" cont="0"/>
        <request index="6"  response="0000111000001111" foes="1000111000001111" cont="0"/>
        <request index="7"  response="0110111000001110" foes="0110111000001110" cont="1"/>
        <request index="8"  response="0000000000000000" foes="0110000000000000" cont="0"/>
        <request index="9"  response="1000000010000000" foes="1110000011111000" cont="0"/>
        <request index="10" response="1000000010000000" foes="1110000011111000" cont="0"/>
        <request index="11" response="1000000010000110" foes="1110000011100110" cont="1"/>
        <request index="12" response="0000000000000110" foes="0000000000000110" cont="0"/>
        <request index="13" response="0000111100001110" foes="0000111110001110" cont="0"/>
        <request index="14" response="0000111100001110" foes="0000111110001110" cont="0"/>
        <request index="15" response="0000111001101110" foes="0000111001101110" cont="1"/>
    </junction>
    <junction id="gneJ3" type="priority" x="20.00" y="0.00" incLanes="C_in_0 C_in_1 gneE1_0 gneE1_1" intLanes=":gneJ3_0_0 :gneJ3_0_1 :gneJ3_0_2 :gneJ3_3_0 :gneJ3_3_1" shape="24.00,6.40 24.00,-6.40 16.00,-6.40 16.00,9.60 19.03,8.77 20.97,7.23 22.21,6.64">
        <request index="0" response="00000" foes="00000" cont="0"/>
        <request index="1" response="00000" foes="00000" cont="0"/>
        <request index="2" response="00000" foes="00000" cont="0"/>
        <request index="3" response="00000" foes="00000" cont="0"/>
        <request index="4" response="00000" foes="00000" cont="0"/>
    </junction>
    <junction id="gneJ4" type="priority" x="0.00" y="-20.00" incLanes="gneE2_0 gneE2_1 B_in_0 B_in_1" intLanes=":gneJ4_0_0 :gneJ4_0_1 :gneJ4_2_0 :gneJ4_2_1 :gneJ4_2_2" shape="-6.40,-16.00 9.60,-16.00 8.77,-19.03 7.23,-20.97 6.64,-22.21 6.40,-24.00 -6.40,-24.00">
        <request index="0" response="00000" foes="00000" cont="0"/>
        <request index="1" response="00000" foes="00000" cont="0"/>
        <request index="2" response="00000" foes="00000" cont="0"/>
        <request index="3" response="00000" foes="00000" cont="0"/>
        <request index="4" response="00000" foes="00000" cont="0"/>
    </junction>
    <junction id="gneJ5" type="priority" x="-20.00" y="0.00" incLanes="gneE3_0 gneE3_1 A_in_0 A_in_1" intLanes=":gneJ5_0_0 :gneJ5_0_1 :gneJ5_2_0 :gneJ5_2_1 :gneJ5_2_2" shape="-16.00,6.40 -16.00,-9.60 -19.03,-8.77 -20.97,-7.23 -22.21,-6.64 -24.00,-6.40 -24.00,6.40">
        <request index="0" response="00000" foes="00000" cont="0"/>
        <request index="1" response="00000" foes="00000" cont="0"/>
        <request index="2" response="00000" foes="00000" cont="0"/>
        <request index="3" response="00000" foes="00000" cont="0"/>
        <request index="4" response="00000" foes="00000" cont="0"/>
    </junction>
    <junction id="gneJ6" type="dead_end" x="0.00" y="-200.00" incLanes="B_out_0 B_out_1" intLanes="" shape="0.00,-200.00 -6.40,-200.00 0.00,-200.00"/>
    <junction id="gneJ7" type="dead_end" x="200.00" y="0.00" incLanes="C_out_0 C_out_1" intLanes="" shape="200.00,0.00 200.00,-6.40 200.00,0.00"/>
    <junction id="gneJ8" type="dead_end" x="-200.00" y="0.00" incLanes="A_out_0 A_out_1" intLanes="" shape="-200.00,0.00 -200.00,6.40 -200.00,0.00"/>

    <junction id=":gneJ2_16_0" type="internal" x="-0.42" y="6.57" incLanes=":gneJ2_3_0 -gneE2_0 -gneE2_1" intLanes=":gneJ2_5_0 :gneJ2_5_1 :gneJ2_7_0 :gneJ2_8_0 :gneJ2_9_0 :gneJ2_9_1 :gneJ2_13_0 :gneJ2_13_1 :gneJ2_15_0"/>
    <junction id=":gneJ2_17_0" type="internal" x="6.57" y="0.42" incLanes=":gneJ2_7_0 -gneE3_0 -gneE3_1" intLanes=":gneJ2_1_0 :gneJ2_1_1 :gneJ2_3_0 :gneJ2_9_0 :gneJ2_9_1 :gneJ2_11_0 :gneJ2_12_0 :gneJ2_13_0 :gneJ2_13_1"/>
    <junction id=":gneJ2_18_0" type="internal" x="0.42" y="-6.57" incLanes=":gneJ2_11_0 gneE0_0 gneE0_1" intLanes=":gneJ2_0_0 :gneJ2_1_0 :gneJ2_1_1 :gneJ2_5_0 :gneJ2_5_1 :gneJ2_7_0 :gneJ2_13_0 :gneJ2_13_1 :gneJ2_15_0"/>
    <junction id=":gneJ2_19_0" type="internal" x="-6.57" y="-0.42" incLanes=":gneJ2_15_0 -gneE1_0 -gneE1_1" intLanes=":gneJ2_1_0 :gneJ2_1_1 :gneJ2_3_0 :gneJ2_4_0 :gneJ2_5_0 :gneJ2_5_1 :gneJ2_9_0 :gneJ2_9_1 :gneJ2_11_0"/>

    <connection from="-gneE0" to="D_out" fromLane="0" toLane="0" via=":gneJ1_3_0" dir="s" state="M"/>
    <connection from="-gneE0" to="D_out" fromLane="1" toLane="1" via=":gneJ1_3_1" dir="s" state="M"/>
    <connection from="-gneE1" to="-gneE0" fromLane="0" toLane="0" via=":gneJ2_4_0" tl="gneJ2" linkIndex="4" dir="r" state="o"/>
    <connection from="-gneE1" to="gneE3" fromLane="0" toLane="0" via=":gneJ2_5_0" tl="gneJ2" linkIndex="5" dir="s" state="o"/>
    <connection from="-gneE1" to="gneE3" fromLane="1" toLane="1" via=":gneJ2_5_1" tl="gneJ2" linkIndex="6" dir="s" state="o"/>
    <connection from="-gneE1" to="gneE2" fromLane="2" toLane="1" via=":gneJ2_7_0" tl="gneJ2" linkIndex="7" dir="l" state="o"/>
    <connection from="-gneE2" to="gneE1" fromLane="0" toLane="0" via=":gneJ2_8_0" tl="gneJ2" linkIndex="8" dir="r" state="O"/>
    <connection from="-gneE2" to="-gneE0" fromLane="0" toLane="0" via=":gneJ2_9_0" tl="gneJ2" linkIndex="9" dir="s" state="O"/>
    <connection from="-gneE2" to="-gneE0" fromLane="1" toLane="1" via=":gneJ2_9_1" tl="gneJ2" linkIndex="10" dir="s" state="O"/>
    <connection from="-gneE2" to="gneE3" fromLane="2" toLane="1" via=":gneJ2_11_0" tl="gneJ2" linkIndex="11" dir="l" state="o"/>
    <connection from="-gneE3" to="gneE2" fromLane="0" toLane="0" via=":gneJ2_12_0" tl="gneJ2" linkIndex="12" dir="r" state="o"/>
    <connection from="-gneE3" to="gneE1" fromLane="0" toLane="0" via=":gneJ2_13_0" tl="gneJ2" linkIndex="13" dir="s" state="o"/>
    <connection from="-gneE3" to="gneE1" fromLane="1" toLane="1" via=":gneJ2_13_1" tl="gneJ2" linkIndex="14" dir="s" state="o"/>
    <connection from="-gneE3" to="-gneE0" fromLane="2" toLane="1" via=":gneJ2_15_0" tl="gneJ2" linkIndex="15" dir="l" state="o"/>
    <connection from="A_in" to="-gneE3" fromLane="0" toLane="0" via=":gneJ5_2_0" dir="s" state="M"/>
    <connection from="A_in" to="-gneE3" fromLane="1" toLane="1" via=":gneJ5_2_1" dir="s" state="M"/>
    <connection from="A_in" to="-gneE3" fromLane="1" toLane="2" via=":gneJ5_2_2" dir="s" state="M"/>
    <connection from="B_in" to="-gneE2" fromLane="0" toLane="0" via=":gneJ4_2_0" dir="s" state="M"/>
    <connection from="B_in" to="-gneE2" fromLane="1" toLane="1" via=":gneJ4_2_1" dir="s" state="M"/>
    <connection from="B_in" to="-gneE2" fromLane="1" toLane="2" via=":gneJ4_2_2" dir="s" state="M"/>
    <connection from="C_in" to="-gneE1" fromLane="0" toLane="0" via=":gneJ3_0_0" dir="s" state="M"/>
    <connection from="C_in" to="-gneE1" fromLane="1" toLane="1" via=":gneJ3_0_1" dir="s" state="M"/>
    <connection from="C_in" to="-gneE1" fromLane="1" toLane="2" via=":gneJ3_0_2" dir="s" state="M"/>
    <connection from="D_in" to="gneE0" fromLane="0" toLane="0" via=":gneJ1_0_0" dir="s" state="M"/>
    <connection from="D_in" to="gneE0" fromLane="1" toLane="1" via=":gneJ1_0_1" dir="s" state="M"/>
    <connection from="D_in" to="gneE0" fromLane="1" toLane="2" via=":gneJ1_0_2" dir="s" state="M"/>
    <connection from="gneE0" to="gneE3" fromLane="0" toLane="0" via=":gneJ2_0_0" tl="gneJ2" linkIndex="0" dir="r" state="O"/>
    <connection from="gneE0" to="gneE2" fromLane="0" toLane="0" via=":gneJ2_1_0" tl="gneJ2" linkIndex="1" dir="s" state="O"/>
    <connection from="gneE0" to="gneE2" fromLane="1" toLane="1" via=":gneJ2_1_1" tl="gneJ2" linkIndex="2" dir="s" state="O"/>
    <connection from="gneE0" to="gneE1" fromLane="2" toLane="1" via=":gneJ2_3_0" tl="gneJ2" linkIndex="3" dir="l" state="o"/>
    <connection from="gneE1" to="C_out" fromLane="0" toLane="0" via=":gneJ3_3_0" dir="s" state="M"/>
    <connection from="gneE1" to="C_out" fromLane="1" toLane="1" via=":gneJ3_3_1" dir="s" state="M"/>
    <connection from="gneE2" to="B_out" fromLane="0" toLane="0" via=":gneJ4_0_0" dir="s" state="M"/>
    <connection from="gneE2" to="B_out" fromLane="1" toLane="1" via=":gneJ4_0_1" dir="s" state="M"/>
    <connection from="gneE3" to="A_out" fromLane="0" toLane="0" via=":gneJ5_0_0" dir="s" state="M"/>
    <connection from="gneE3" to="A_out" fromLane="1" toLane="1" via=":gneJ5_0_1" dir="s" state="M"/>

    <connection from=":gneJ1_0" to="gneE0" fromLane="0" toLane="0" dir="s" state="M"/>
    <connection from=":gneJ1_0" to="gneE0" fromLane="1" toLane="1" dir="s" state="M"/>
    <connection from=":gneJ1_0" to="gneE0" fromLane="2" toLane="2" dir="s" state="M"/>
    <connection from=":gneJ1_3" to="D_out" fromLane="0" toLane="0" dir="s" state="M"/>
    <connection from=":gneJ1_3" to="D_out" fromLane="1" toLane="1" dir="s" state="M"/>
    <connection from=":gneJ2_0" to="gneE3" fromLane="0" toLane="0" dir="r" state="M"/>
    <connection from=":gneJ2_1" to="gneE2" fromLane="0" toLane="0" dir="s" state="M"/>
    <connection from=":gneJ2_1" to="gneE2" fromLane="1" toLane="1" dir="s" state="M"/>
    <connection from=":gneJ2_3" to="gneE1" fromLane="0" toLane="1" via=":gneJ2_16_0" dir="l" state="m"/>
    <connection from=":gneJ2_16" to="gneE1" fromLane="0" toLane="1" dir="l" state="M"/>
    <connection from=":gneJ2_4" to="-gneE0" fromLane="0" toLane="0" dir="r" state="M"/>
    <connection from=":gneJ2_5" to="gneE3" fromLane="0" toLane="0" dir="s" state="M"/>
    <connection from=":gneJ2_5" to="gneE3" fromLane="1" toLane="1" dir="s" state="M"/>
    <connection from=":gneJ2_7" to="gneE2" fromLane="0" toLane="1" via=":gneJ2_17_0" dir="l" state="m"/>
    <connection from=":gneJ2_17" to="gneE2" fromLane="0" toLane="1" dir="l" state="M"/>
    <connection from=":gneJ2_8" to="gneE1" fromLane="0" toLane="0" dir="r" state="M"/>
    <connection from=":gneJ2_9" to="-gneE0" fromLane="0" toLane="0" dir="s" state="M"/>
    <connection from=":gneJ2_9" to="-gneE0" fromLane="1" toLane="1" dir="s" state="M"/>
    <connection from=":gneJ2_11" to="gneE3" fromLane="0" toLane="1" via=":gneJ2_18_0" dir="l" state="m"/>
    <connection from=":gneJ2_18" to="gneE3" fromLane="0" toLane="1" dir="l" state="M"/>
    <connection from=":gneJ2_12" to="gneE2" fromLane="0" toLane="0" dir="r" state="M"/>
    <connection from=":gneJ2_13" to="gneE1" fromLane="0" toLane="0" dir="s" state="M"/>
    <connection from=":gneJ2_13" to="gneE1" fromLane="1" toLane="1" dir="s" state="M"/>
    <connection from=":gneJ2_15" to="-gneE0" fromLane="0" toLane="1" via=":gneJ2_19_0" dir="l" state="m"/>
    <connection from=":gneJ2_19" to="-gneE0" fromLane="0" toLane="1" dir="l" state="M"/>
    <connection from=":gneJ3_0" to="-gneE1" fromLane="0" toLane="0" dir="s" state="M"/>
    <connection from=":gneJ3_0" to="-gneE1" fromLane="1" toLane="1" dir="s" state="M"/>
    <connection from=":gneJ3_0" to="-gneE1" fromLane="2" toLane="2" dir="s" state="M"/>
    <connection from=":gneJ3_3" to="C_out" fromLane="0" toLane="0" dir="s" state="M"/>
    <connection from=":gneJ3_3" to="C_out" fromLane="1" toLane="1" dir="s" state="M"/>
    <connection from=":gneJ4_0" to="B_out" fromLane="0" toLane="0" dir="s" state="M"/>
    <connection from=":gneJ4_0" to="B_out" fromLane="1" toLane="1" dir="s" state="M"/>
    <connection from=":gneJ4_2" to="-gneE2" fromLane="0" toLane="0" dir="s" state="M"/>
    <connection from=":gneJ4_2" to="-gneE2" fromLane="1" toLane="1" dir="s" state="M"/>
    <connection from=":gneJ4_2" to="-gneE2" fromLane="2" toLane="2" dir="s" state="M"/>
    <connection from=":gneJ5_0" to="A_out" fromLane="0" toLane="0" dir="s" state="M"/>
    <connection from=":gneJ5_0" to="A_out" fromLane="1" toLane="1" dir="s" state="M"/>
    <connection from=":gneJ5_2" to="-gneE3" fromLane="0" toLane="0" dir="s" state="M"/>
    <connection from=":gneJ5_2" to="-gneE3" fromLane="1" toLane="1" dir="s" state="M"/>
    <connection from=":gneJ5_2" to="-gneE3" fromLane="2" toLane="2" dir="s" state="M"/>

</net>
