<?xml version="1.0" encoding="UTF-8"?>

<!-- generated on 2025-01-05 10:44:47 by Eclipse SUMO netedit Version 1.19.0
<configuration xmlns:xsi="http://www.w3.org/2001/XMLSchema-instance" xsi:noNamespaceSchemaLocation="http://sumo.dlr.de/xsd/neteditConfiguration.xsd">

    <input>
        <sumo-net-file value="C:\Users\VargaBalazs\Desktop\Projektek\EKOP-multimodal\Scenarios\Scenarios\Variant10_p36v2.net.xml"/>
    </input>

    <output>
        <output-file value="C:\Users\VargaBalazs\Desktop\Projektek\EKOP-multimodal\Scenarios\Scenarios\Variant10_p36v2.net.xml"/>
    </output>

    <processing>
        <geometry.min-radius.fix.railways value="false"/>
        <geometry.max-grade.fix value="false"/>
        <offset.disable-normalization value="true"/>
        <lefthand value="0"/>
    </processing>

    <junctions>
        <no-internal-links value="false"/>
        <no-turnarounds value="true"/>
        <junctions.corner-detail value="5"/>
        <junctions.limit-turn-speed value="5.50"/>
        <rectangular-lane-cut value="0"/>
    </junctions>

    <pedestrian>
        <walkingareas value="0"/>
    </pedestrian>

</configuration>
-->

<net version="1.16" junctionCornerDetail="5" limitTurnSpeed="5.50" xmlns:xsi="http://www.w3.org/2001/XMLSchema-instance" xsi:noNamespaceSchemaLocation="http://sumo.dlr.de/xsd/net_file.xsd">

    <location netOffset="0.00,0.00" convBoundary="-200.00,-200.00,200.00,0.00" origBoundary="-10000000000.00,-10000000000.00,10000000000.00,10000000000.00" projParameter="!"/>

    <edge id=":J0_w0" function="walkingarea">
        <lane id=":J0_w0_0" index="0" allow="pedestrian" speed="2.78" length="21.20" width="2.00" shape="-200.00,-9.60 -200.00,-11.60 -200.00,11.60 -200.00,9.60"/>
    </edge>
    <edge id=":J1_0" function="internal">
        <lane id=":J1_0_0" index="0" disallow="pedestrian" speed="13.89" length="17.60" shape="10.40,8.00 -7.20,8.00"/>
        <lane id=":J1_0_1" index="1" disallow="pedestrian" speed="13.89" length="17.60" shape="10.40,4.80 -7.20,4.80"/>
        <lane id=":J1_0_2" index="2" disallow="pedestrian" speed="13.89" length="17.60" shape="10.40,1.60 -7.20,1.60"/>
    </edge>
    <edge id=":J1_3" function="internal">
        <lane id=":J1_3_0" index="0" disallow="pedestrian" speed="9.84" length="4.01" shape="10.40,1.60 6.45,0.89"/>
    </edge>
    <edge id=":J1_12" function="internal">
        <lane id=":J1_12_0" index="0" disallow="pedestrian" speed="9.84" length="17.98" shape="6.45,0.89 5.15,0.65 1.40,-2.20 -0.85,-6.95 -1.60,-13.60"/>
    </edge>
    <edge id=":J1_4" function="internal">
        <lane id=":J1_4_0" index="0" disallow="pedestrian" speed="6.51" length="4.75" shape="4.80,-13.60 5.15,-11.15 6.20,-9.40 6.40,-9.28"/>
        <lane id=":J1_4_1" index="1" disallow="pedestrian" speed="8.00" length="10.13" shape="1.60,-13.60 2.15,-9.75 3.80,-7.00 6.40,-5.44"/>
    </edge>
    <edge id=":J1_6" function="internal">
        <lane id=":J1_6_0" index="0" disallow="pedestrian" speed="9.94" length="18.22" shape="1.60,-13.60 1.05,-5.55 -0.60,0.20 -3.20,3.46"/>
        <lane id=":J1_6_1" index="1" disallow="pedestrian" speed="9.32" length="15.45" shape="1.60,-13.60 1.05,-6.95 -0.60,-2.20 -3.20,0.49"/>
    </edge>
    <edge id=":J1_13" function="internal">
        <lane id=":J1_13_0" index="0" disallow="pedestrian" speed="6.51" length="4.28" shape="6.40,-9.28 7.95,-8.35 10.40,-8.00"/>
    </edge>
    <edge id=":J1_14" function="internal">
        <lane id=":J1_14_0" index="0" disallow="pedestrian" speed="8.00" length="4.06" shape="6.40,-5.44 6.55,-5.35 10.40,-4.80"/>
    </edge>
    <edge id=":J1_15" function="internal">
        <lane id=":J1_15_0" index="0" disallow="pedestrian" speed="9.94" length="4.26" shape="-3.20,3.46 -3.35,3.65 -7.20,4.80"/>
    </edge>
    <edge id=":J1_16" function="internal">
        <lane id=":J1_16_0" index="0" disallow="pedestrian" speed="9.32" length="4.18" shape="-3.20,0.49 -3.35,0.65 -7.20,1.60"/>
    </edge>
    <edge id=":J1_8" function="internal">
        <lane id=":J1_8_0" index="0" disallow="pedestrian" speed="6.51" length="4.75" shape="-7.20,-8.00 -4.75,-8.35 -3.00,-9.40 -2.88,-9.60"/>
    </edge>
    <edge id=":J1_9" function="internal">
        <lane id=":J1_9_0" index="0" disallow="pedestrian" speed="13.89" length="17.60" shape="-7.20,-8.00 10.40,-8.00"/>
        <lane id=":J1_9_1" index="1" disallow="pedestrian" speed="13.89" length="17.60" shape="-7.20,-4.80 10.40,-4.80"/>
        <lane id=":J1_9_2" index="2" disallow="pedestrian" speed="13.89" length="17.60" shape="-7.20,-1.60 10.40,-1.60"/>
    </edge>
    <edge id=":J1_17" function="internal">
        <lane id=":J1_17_0" index="0" disallow="pedestrian" speed="6.51" length="4.28" shape="-2.88,-9.60 -1.95,-11.15 -1.60,-13.60"/>
    </edge>
    <edge id=":J1_c0" function="crossing" crossingEdges="C_out C_in">
        <lane id=":J1_c0_0" index="0" allow="pedestrian" speed="2.78" length="19.20" width="4.00" shape="8.40,-9.60 8.40,9.60"/>
    </edge>
    <edge id=":J1_c1" function="crossing" crossingEdges="B_out -E3.152">
        <lane id=":J1_c1_0" index="0" allow="pedestrian" speed="2.78" length="9.60" width="4.00" shape="-3.20,-11.60 6.40,-11.60"/>
    </edge>
    <edge id=":J1_c2" function="crossing" crossingEdges="A_out A_in">
        <lane id=":J1_c2_0" index="0" allow="pedestrian" speed="2.78" length="19.20" width="4.00" shape="-5.20,9.60 -5.20,-9.60"/>
    </edge>
    <edge id=":J1_w0" function="walkingarea">
        <lane id=":J1_w0_0" index="0" allow="pedestrian" speed="2.78" length="11.16" width="4.00" shape="-3.20,9.60 -7.20,9.60 -7.20,11.60 10.40,11.60 10.40,9.60 6.40,9.60"/>
    </edge>
    <edge id=":J1_w1" function="walkingarea">
        <lane id=":J1_w1_0" index="0" allow="pedestrian" speed="2.78" length="3.30" width="4.00" shape="10.40,-9.60 10.40,-11.60 8.40,-13.60 6.40,-13.60 6.51,-12.38 6.84,-11.38 7.40,-10.60 8.18,-10.04 9.18,-9.71"/>
    </edge>
    <edge id=":J1_w2" function="walkingarea">
        <lane id=":J1_w2_0" index="0" allow="pedestrian" speed="2.78" length="3.30" width="4.00" shape="-3.20,-13.60 -5.20,-13.60 -7.20,-11.60 -7.20,-9.60 -5.98,-9.71 -4.98,-10.04 -4.20,-10.60 -3.64,-11.38 -3.31,-12.38"/>
    </edge>
    <edge id=":J2_w0" function="walkingarea">
        <lane id=":J2_w0_0" index="0" allow="pedestrian" speed="2.78" length="21.20" width="2.00" shape="200.00,9.60 200.00,11.60 200.00,-11.60 200.00,-9.60"/>
    </edge>
    <edge id=":J4_w0" function="walkingarea">
        <lane id=":J4_w0_0" index="0" allow="pedestrian" speed="2.78" length="8.40" width="2.00" shape="3.20,-200.00 5.20,-200.00 -5.20,-200.00 -3.20,-200.00"/>
    </edge>
    <edge id=":J5_0" function="internal">
        <lane id=":J5_0_0" index="0" disallow="pedestrian" speed="13.89" length="8.40" shape="1.60,-54.00 2.10,-51.54 3.20,-50.00 4.30,-48.46 4.80,-46.00"/>
        <lane id=":J5_0_1" index="1" disallow="pedestrian" speed="13.89" length="8.40" shape="1.60,-54.00 1.60,-46.00"/>
    </edge>
    <edge id=":J5_w0" function="walkingarea">
        <lane id=":J5_w0_0" index="0" allow="pedestrian" speed="2.78" length="8.62" width="2.00" shape="6.40,-46.00 8.40,-46.00 5.20,-54.00 3.20,-54.00 3.44,-52.21 4.03,-50.97 4.80,-50.00 5.57,-49.03 6.16,-47.79"/>
    </edge>

    <edge id="-E3.152" from="J5" to="J1" priority="1">
        <lane id="-E3.152_0" index="0" allow="pedestrian" speed="13.89" length="32.40" width="2.00" shape="7.40,-46.00 7.40,-13.60"/>
        <lane id="-E3.152_1" index="1" disallow="pedestrian" speed="13.89" length="32.40" shape="4.80,-46.00 4.80,-13.60"/>
        <lane id="-E3.152_2" index="2" disallow="pedestrian" speed="13.89" length="32.40" shape="1.60,-46.00 1.60,-13.60"/>
    </edge>
    <edge id="A_in" from="J0" to="J1" priority="5">
        <lane id="A_in_0" index="0" allow="pedestrian" speed="13.89" length="192.80" width="2.00" shape="-200.00,-10.60 -7.20,-10.60"/>
        <lane id="A_in_1" index="1" disallow="pedestrian" speed="13.89" length="192.80" shape="-200.00,-8.00 -7.20,-8.00"/>
        <lane id="A_in_2" index="2" disallow="pedestrian" speed="13.89" length="192.80" shape="-200.00,-4.80 -7.20,-4.80"/>
        <lane id="A_in_3" index="3" disallow="pedestrian" speed="13.89" length="192.80" shape="-200.00,-1.60 -7.20,-1.60"/>
    </edge>
    <edge id="A_out" from="J1" to="J0" priority="5">
        <lane id="A_out_0" index="0" allow="pedestrian" speed="13.89" length="192.80" width="2.00" shape="-7.20,10.60 -200.00,10.60"/>
        <lane id="A_out_1" index="1" disallow="pedestrian" speed="13.89" length="192.80" shape="-7.20,8.00 -200.00,8.00"/>
        <lane id="A_out_2" index="2" disallow="pedestrian" speed="13.89" length="192.80" shape="-7.20,4.80 -200.00,4.80"/>
        <lane id="A_out_3" index="3" disallow="pedestrian" speed="13.89" length="192.80" shape="-7.20,1.60 -200.00,1.60"/>
    </edge>
    <edge id="B_in" from="J4" to="J5" priority="1">
        <lane id="B_in_0" index="0" allow="pedestrian" speed="13.89" length="146.00" width="2.00" shape="4.20,-200.00 4.20,-54.00"/>
        <lane id="B_in_1" index="1" disallow="pedestrian" speed="13.89" length="146.00" shape="1.60,-200.00 1.60,-54.00"/>
    </edge>
    <edge id="B_out" from="J1" to="J4" priority="1">
        <lane id="B_out_0" index="0" allow="pedestrian" speed="13.89" length="186.40" width="2.00" shape="-4.20,-13.60 -4.20,-200.00"/>
        <lane id="B_out_1" index="1" disallow="pedestrian" speed="13.89" length="186.40" shape="-1.60,-13.60 -1.60,-200.00"/>
    </edge>
    <edge id="C_in" from="J2" to="J1" priority="5">
        <lane id="C_in_0" index="0" allow="pedestrian" speed="13.89" length="189.60" width="2.00" shape="200.00,10.60 10.40,10.60"/>
        <lane id="C_in_1" index="1" disallow="pedestrian" speed="13.89" length="189.60" shape="200.00,8.00 10.40,8.00"/>
        <lane id="C_in_2" index="2" disallow="pedestrian" speed="13.89" length="189.60" shape="200.00,4.80 10.40,4.80"/>
        <lane id="C_in_3" index="3" disallow="pedestrian" speed="13.89" length="189.60" shape="200.00,1.60 10.40,1.60"/>
    </edge>
    <edge id="C_out" from="J1" to="J2" priority="5">
        <lane id="C_out_0" index="0" allow="pedestrian" speed="13.89" length="189.60" width="2.00" shape="10.40,-10.60 200.00,-10.60"/>
        <lane id="C_out_1" index="1" disallow="pedestrian" speed="13.89" length="189.60" shape="10.40,-8.00 200.00,-8.00"/>
        <lane id="C_out_2" index="2" disallow="pedestrian" speed="13.89" length="189.60" shape="10.40,-4.80 200.00,-4.80"/>
        <lane id="C_out_3" index="3" disallow="pedestrian" speed="13.89" length="189.60" shape="10.40,-1.60 200.00,-1.60"/>
    </edge>

    <tlLogic id="J1" type="static" programID="0" offset="0">
        <phase duration="37" state="GGGgrrrrgGGGrGr"/>
        <phase duration="5"  state="GGGgrrrrgGGGrrr"/>
        <phase duration="3"  state="yyyyrrrryyyyrrr"/>
        <phase duration="37" state="rrrrggggrrrrGrG"/>
        <phase duration="5"  state="rrrrggggrrrrrrr"/>
        <phase duration="3"  state="rrrryyyyrrrrrrr"/>
    </tlLogic>

    <junction id="J0" type="dead_end" x="-200.00" y="0.00" incLanes="A_out_0 A_out_1 A_out_2 A_out_3" intLanes="" shape="-200.00,0.00 -200.00,11.60 -200.00,0.00"/>
    <junction id="J1" type="traffic_light" x="0.00" y="0.00" incLanes="C_in_0 C_in_1 C_in_2 C_in_3 -E3.152_0 -E3.152_1 -E3.152_2 A_in_0 A_in_1 A_in_2 A_in_3 :J1_w1_0 :J1_w2_0 :J1_w0_0" intLanes=":J1_0_0 :J1_0_1 :J1_0_2 :J1_12_0 :J1_13_0 :J1_14_0 :J1_15_0 :J1_16_0 :J1_17_0 :J1_9_0 :J1_9_1 :J1_9_2 :J1_c0_0 :J1_c1_0 :J1_c2_0" shape="10.40,11.60 10.40,-11.60 9.29,-11.82 8.90,-12.10 8.62,-12.49 8.46,-12.99 8.40,-13.60 -5.20,-13.60 -5.42,-12.49 -5.70,-12.10 -6.09,-11.82 -6.59,-11.66 -7.20,-11.60 -7.20,11.60">
        <request index="0"  response="101000011000000" foes="101000011000000" cont="0"/>
        <request index="1"  response="101000011000000" foes="101000011000000" cont="0"/>
        <request index="2"  response="101000011000000" foes="101000011000000" cont="0"/>
        <request index="3"  response="011111111000000" foes="011111111000000" cont="1"/>
        <request index="4"  response="011111000000000" foes="011111000000000" cont="1"/>
        <request index="5"  response="011111000000000" foes="011111000000000" cont="1"/>
        <request index="6"  response="110111000001111" foes="110111000001111" cont="1"/>
        <request index="7"  response="110111000001111" foes="110111000001111" cont="1"/>
        <request index="8"  response="110000000000000" foes="110000000001000" cont="1"/>
        <request index="9"  response="101000011110000" foes="101000011111000" cont="0"/>
        <request index="10" response="101000011110000" foes="101000011111000" cont="0"/>
        <request index="11" response="101000011110000" foes="101000011111000" cont="0"/>
        <request index="12" response="000000000000000" foes="000111000111111" cont="0"/>
        <request index="13" response="000000000000000" foes="000000111111000" cont="0"/>
        <request index="14" response="000000000000000" foes="000111111000111" cont="0"/>
    </junction>
    <junction id="J2" type="dead_end" x="200.00" y="0.00" incLanes="C_out_0 C_out_1 C_out_2 C_out_3" intLanes="" shape="200.00,0.00 200.00,-11.60 200.00,0.00"/>
    <junction id="J4" type="dead_end" x="0.00" y="-200.00" incLanes="B_out_0 B_out_1" intLanes="" shape="0.00,-200.00 -5.20,-200.00 0.00,-200.00"/>
    <junction id="J5" type="priority" x="0.00" y="-50.00" incLanes="B_in_0 B_in_1" intLanes=":J5_0_0 :J5_0_1" shape="0.00,-46.00 8.40,-46.00 7.57,-49.03 6.03,-50.97 5.44,-52.21 5.20,-54.00 0.00,-54.00">
        <request index="0" response="00" foes="00" cont="0"/>
        <request index="1" response="00" foes="00" cont="0"/>
    </junction>

    <junction id=":J1_12_0" type="internal" x="6.45" y="0.89" incLanes=":J1_3_0 A_in_1 A_in_2 A_in_3" intLanes=":J1_6_0 :J1_6_1 :J1_8_0 :J1_9_0 :J1_9_1 :J1_9_2 :J1_c0_0 :J1_c1_0"/>
    <junction id=":J1_13_0" type="internal" x="6.40" y="-9.28" incLanes=":J1_4_0" intLanes=":J1_9_0 :J1_9_1 :J1_9_2 :J1_c0_0 :J1_c1_0"/>
    <junction id=":J1_14_0" type="internal" x="6.40" y="-5.44" incLanes=":J1_4_1" intLanes=":J1_9_0 :J1_9_1 :J1_9_2 :J1_c0_0 :J1_c1_0"/>
    <junction id=":J1_15_0" type="internal" x="-3.20" y="3.46" incLanes=":J1_6_0" intLanes=":J1_0_0 :J1_0_1 :J1_0_2 :J1_3_0 :J1_9_0 :J1_9_1 :J1_9_2 :J1_c1_0 :J1_c2_0"/>
    <junction id=":J1_16_0" type="internal" x="-3.20" y="0.49" incLanes=":J1_6_1" intLanes=":J1_0_0 :J1_0_1 :J1_0_2 :J1_3_0 :J1_9_0 :J1_9_1 :J1_9_2 :J1_c1_0 :J1_c2_0"/>
    <junction id=":J1_17_0" type="internal" x="-2.88" y="-9.60" incLanes=":J1_8_0" intLanes=":J1_3_0 :J1_c1_0 :J1_c2_0"/>

    <connection from="-E3.152" to="C_out" fromLane="1" toLane="1" via=":J1_4_0" tl="J1" linkIndex="4" dir="r" state="o"/>
    <connection from="-E3.152" to="C_out" fromLane="2" toLane="2" via=":J1_4_1" tl="J1" linkIndex="5" dir="r" state="o"/>
    <connection from="-E3.152" to="A_out" fromLane="2" toLane="2" via=":J1_6_0" tl="J1" linkIndex="6" dir="l" state="o"/>
    <connection from="-E3.152" to="A_out" fromLane="2" toLane="3" via=":J1_6_1" tl="J1" linkIndex="7" dir="l" state="o"/>
    <connection from="A_in" to="B_out" fromLane="1" toLane="1" via=":J1_8_0" tl="J1" linkIndex="8" dir="r" state="o"/>
    <connection from="A_in" to="C_out" fromLane="1" toLane="1" via=":J1_9_0" tl="J1" linkIndex="9" dir="s" state="o"/>
    <connection from="A_in" to="C_out" fromLane="2" toLane="2" via=":J1_9_1" tl="J1" linkIndex="10" dir="s" state="o"/>
    <connection from="A_in" to="C_out" fromLane="3" toLane="3" via=":J1_9_2" tl="J1" linkIndex="11" dir="s" state="o"/>
    <connection from="B_in" to="-E3.152" fromLane="1" toLane="1" via=":J5_0_0" dir="s" state="M"/>
    <connection from="B_in" to="-E3.152" fromLane="1" toLane="2" via=":J5_0_1" dir="s" state="M"/>
    <connection from="C_in" to="A_out" fromLane="1" toLane="1" via=":J1_0_0" tl="J1" linkIndex="0" dir="s" state="o"/>
    <connection from="C_in" to="A_out" fromLane="2" toLane="2" via=":J1_0_1" tl="J1" linkIndex="1" dir="s" state="o"/>
    <connection from="C_in" to="A_out" fromLane="3" toLane="3" via=":J1_0_2" tl="J1" linkIndex="2" dir="s" state="o"/>
    <connection from="C_in" to="B_out" fromLane="3" toLane="1" via=":J1_3_0" tl="J1" linkIndex="3" dir="l" state="o"/>

    <connection from=":J1_0" to="A_out" fromLane="0" toLane="1" dir="s" state="M"/>
    <connection from=":J1_0" to="A_out" fromLane="1" toLane="2" dir="s" state="M"/>
    <connection from=":J1_0" to="A_out" fromLane="2" toLane="3" dir="s" state="M"/>
    <connection from=":J1_3" to="B_out" fromLane="0" toLane="1" via=":J1_12_0" dir="l" state="m"/>
    <connection from=":J1_12" to="B_out" fromLane="0" toLane="1" dir="l" state="m"/>
    <connection from=":J1_4" to="C_out" fromLane="0" toLane="1" via=":J1_13_0" dir="r" state="m"/>
    <connection from=":J1_13" to="C_out" fromLane="0" toLane="1" dir="r" state="m"/>
    <connection from=":J1_4" to="C_out" fromLane="1" toLane="2" via=":J1_14_0" dir="r" state="m"/>
    <connection from=":J1_14" to="C_out" fromLane="0" toLane="2" dir="r" state="m"/>
    <connection from=":J1_6" to="A_out" fromLane="0" toLane="2" via=":J1_15_0" dir="l" state="m"/>
    <connection from=":J1_15" to="A_out" fromLane="0" toLane="2" dir="l" state="m"/>
    <connection from=":J1_6" to="A_out" fromLane="1" toLane="3" via=":J1_16_0" dir="l" state="m"/>
    <connection from=":J1_16" to="A_out" fromLane="0" toLane="3" dir="l" state="m"/>
    <connection from=":J1_8" to="B_out" fromLane="0" toLane="1" via=":J1_17_0" dir="r" state="m"/>
    <connection from=":J1_17" to="B_out" fromLane="0" toLane="1" dir="r" state="m"/>
    <connection from=":J1_9" to="C_out" fromLane="0" toLane="1" dir="s" state="M"/>
    <connection from=":J1_9" to="C_out" fromLane="1" toLane="2" dir="s" state="M"/>
    <connection from=":J1_9" to="C_out" fromLane="2" toLane="3" dir="s" state="M"/>
    <connection from=":J5_0" to="-E3.152" fromLane="0" toLane="1" dir="s" state="M"/>
    <connection from=":J5_0" to="-E3.152" fromLane="1" toLane="2" dir="s" state="M"/>

    <connection from=":J0_w0" to="A_in" fromLane="0" toLane="0" dir="s" state="M"/>
    <connection from="A_out" to=":J0_w0" fromLane="0" toLane="0" dir="s" state="M"/>
    <connection from=":J1_c0" to=":J1_w0" fromLane="0" toLane="0" dir="s" state="M"/>
    <connection from=":J1_c1" to=":J1_w1" fromLane="0" toLane="0" dir="s" state="M"/>
    <connection from=":J1_c2" to=":J1_w2" fromLane="0" toLane="0" dir="s" state="M"/>
    <connection from=":J1_w0" to=":J1_c2" fromLane="0" toLane="0" tl="J1" linkIndex="12" dir="s" state="M"/>
    <connection from=":J1_w0" to="A_out" fromLane="0" toLane="0" dir="s" state="M"/>
    <connection from="C_in" to=":J1_w0" fromLane="0" toLane="0" dir="s" state="M"/>
    <connection from=":J1_w1" to=":J1_c0" fromLane="0" toLane="0" tl="J1" linkIndex="10" dir="s" state="M"/>
    <connection from=":J1_w1" to="C_out" fromLane="0" toLane="0" dir="s" state="M"/>
    <connection from="-E3.152" to=":J1_w1" fromLane="0" toLane="0" dir="s" state="M"/>
    <connection from=":J1_w2" to=":J1_c1" fromLane="0" toLane="0" tl="J1" linkIndex="11" dir="s" state="M"/>
    <connection from=":J1_w2" to="B_out" fromLane="0" toLane="0" dir="s" state="M"/>
    <connection from="A_in" to=":J1_w2" fromLane="0" toLane="0" dir="s" state="M"/>
    <connection from=":J2_w0" to="C_in" fromLane="0" toLane="0" dir="s" state="M"/>
    <connection from="C_out" to=":J2_w0" fromLane="0" toLane="0" dir="s" state="M"/>
    <connection from=":J4_w0" to="B_in" fromLane="0" toLane="0" dir="s" state="M"/>
    <connection from="B_out" to=":J4_w0" fromLane="0" toLane="0" dir="s" state="M"/>
    <connection from=":J5_w0" to="-E3.152" fromLane="0" toLane="0" dir="s" state="M"/>
    <connection from="B_in" to=":J5_w0" fromLane="0" toLane="0" dir="s" state="M"/>
</net>
