<?xml version="1.0" encoding="UTF-8"?>

<!-- generated on 2025-01-08 10:01:01 by Eclipse SUMO netedit Version 1.19.0
<configuration xmlns:xsi="http://www.w3.org/2001/XMLSchema-instance" xsi:noNamespaceSchemaLocation="http://sumo.dlr.de/xsd/neteditConfiguration.xsd">

    <input>
        <sumo-net-file value="C:\Users\VargaBalazs\Desktop\Projektek\EKOP-multimodal\Scenarios\Scenarios\Variant12_p40.net.xml"/>
    </input>

    <output>
        <output-file value="C:\Users\VargaBalazs\Desktop\Projektek\EKOP-multimodal\Scenarios\Scenarios\Variant12_p40.net.xml"/>
    </output>

    <processing>
        <geometry.min-radius.fix.railways value="false"/>
        <geometry.max-grade.fix value="false"/>
        <offset.disable-normalization value="true"/>
        <lefthand value="0"/>
    </processing>

    <junctions>
        <no-internal-links value="false"/>
        <no-turnarounds value="true"/>
        <junctions.corner-detail value="5"/>
        <junctions.limit-turn-speed value="5.50"/>
        <rectangular-lane-cut value="0"/>
    </junctions>

    <pedestrian>
        <walkingareas value="0"/>
    </pedestrian>

</configuration>
-->

<net version="1.16" junctionCornerDetail="5" limitTurnSpeed="5.50" xmlns:xsi="http://www.w3.org/2001/XMLSchema-instance" xsi:noNamespaceSchemaLocation="http://sumo.dlr.de/xsd/net_file.xsd">

    <location netOffset="0.00,0.00" convBoundary="-200.00,-200.00,200.00,200.00" origBoundary="-10000000000.00,-10000000000.00,10000000000.00,10000000000.00" projParameter="!"/>

    <edge id=":J0_w0" function="walkingarea">
        <lane id=":J0_w0_0" index="0" allow="pedestrian" speed="2.78" length="14.80" width="2.00" shape="-200.00,-6.40 -200.00,-8.40 -200.00,8.40 -200.00,6.40"/>
    </edge>
    <edge id=":J1_0" function="internal">
        <lane id=":J1_0_0" index="0" disallow="pedestrian" speed="5.99" length="7.49" shape="-21.60,10.40 -21.82,7.95 -22.50,6.20 -23.62,5.15 -25.20,4.80"/>
    </edge>
    <edge id=":J1_1" function="internal">
        <lane id=":J1_1_0" index="0" disallow="pedestrian" speed="13.89" length="45.39" shape="-21.60,10.40 -15.35,5.74 -1.60,0.00 12.15,-5.74 18.40,-10.40"/>
    </edge>
    <edge id=":J1_2" function="internal">
        <lane id=":J1_2_0" index="0" disallow="pedestrian" speed="13.89" length="48.62" shape="-21.60,10.40 -15.54,7.13 -1.53,3.16 14.14,-0.19 25.20,-1.60"/>
    </edge>
    <edge id=":J1_3" function="internal">
        <lane id=":J1_3_0" index="0" disallow="pedestrian" speed="13.87" length="44.77" shape="25.20,4.80 6.12,5.15 -7.50,6.20 -15.68,7.95 -18.40,10.40"/>
    </edge>
    <edge id=":J1_4" function="internal">
        <lane id=":J1_4_0" index="0" disallow="pedestrian" speed="13.89" length="50.40" shape="25.20,4.80 -25.20,4.80"/>
        <lane id=":J1_4_1" index="1" disallow="pedestrian" speed="13.89" length="50.40" shape="25.20,1.60 -25.20,1.60"/>
    </edge>
    <edge id=":J1_6" function="internal">
        <lane id=":J1_6_0" index="0" disallow="pedestrian" speed="8.31" length="2.86" shape="25.20,1.60 22.42,0.90"/>
    </edge>
    <edge id=":J1_14" function="internal">
        <lane id=":J1_14_0" index="0" disallow="pedestrian" speed="8.31" length="12.53" shape="22.42,0.90 22.22,0.85 20.10,-1.40 18.83,-5.15 18.40,-10.40"/>
    </edge>
    <edge id=":J1_7" function="internal">
        <lane id=":J1_7_0" index="0" disallow="pedestrian" speed="5.99" length="7.49" shape="21.60,-10.40 21.82,-7.95 22.50,-6.20 23.62,-5.15 25.20,-4.80"/>
    </edge>
    <edge id=":J1_8" function="internal">
        <lane id=":J1_8_0" index="0" disallow="pedestrian" speed="13.89" length="45.39" shape="21.60,-10.40 15.35,-5.74 1.60,0.00 -12.15,5.74 -18.40,10.40"/>
    </edge>
    <edge id=":J1_9" function="internal">
        <lane id=":J1_9_0" index="0" disallow="pedestrian" speed="13.89" length="48.62" shape="21.60,-10.40 15.54,-7.13 1.53,-3.16 -14.14,0.19 -25.20,1.60"/>
    </edge>
    <edge id=":J1_10" function="internal">
        <lane id=":J1_10_0" index="0" disallow="pedestrian" speed="13.87" length="44.77" shape="-25.20,-4.80 -6.12,-5.15 7.50,-6.20 15.68,-7.95 18.40,-10.40"/>
    </edge>
    <edge id=":J1_11" function="internal">
        <lane id=":J1_11_0" index="0" disallow="pedestrian" speed="13.89" length="50.40" shape="-25.20,-4.80 25.20,-4.80"/>
        <lane id=":J1_11_1" index="1" disallow="pedestrian" speed="13.89" length="50.40" shape="-25.20,-1.60 25.20,-1.60"/>
    </edge>
    <edge id=":J1_13" function="internal">
        <lane id=":J1_13_0" index="0" disallow="pedestrian" speed="8.31" length="2.86" shape="-25.20,-1.60 -22.42,-0.90"/>
    </edge>
    <edge id=":J1_15" function="internal">
        <lane id=":J1_15_0" index="0" disallow="pedestrian" speed="8.31" length="12.53" shape="-22.42,-0.90 -22.22,-0.85 -20.10,1.40 -18.83,5.15 -18.40,10.40"/>
    </edge>
    <edge id=":J1_c0" function="crossing" crossingEdges="D_out D_in">
        <lane id=":J1_c0_0" index="0" allow="pedestrian" speed="2.78" length="6.40" width="4.00" shape="-16.80,8.40 -23.20,8.40"/>
    </edge>
    <edge id=":J1_c1" function="crossing" crossingEdges="B_out B_in">
        <lane id=":J1_c1_0" index="0" allow="pedestrian" speed="2.78" length="6.40" width="4.00" shape="16.80,-8.40 23.20,-8.40"/>
    </edge>
    <edge id=":J1_w0" function="walkingarea">
        <lane id=":J1_w0_0" index="0" allow="pedestrian" speed="2.78" length="42.01" width="4.00" shape="-16.80,10.40 25.20,8.40 25.20,6.40 12.37,6.51 1.87,6.84 -6.30,7.40 -12.13,8.18 -15.63,9.18"/>
    </edge>
    <edge id=":J1_w1" function="walkingarea">
        <lane id=":J1_w1_0" index="0" allow="pedestrian" speed="2.78" length="2.24" width="4.00" shape="25.20,-6.40 25.20,-8.40 23.20,-10.40 23.26,-9.18 23.42,-8.18 23.70,-7.40 24.09,-6.84 24.59,-6.51"/>
    </edge>
    <edge id=":J1_w2" function="walkingarea">
        <lane id=":J1_w2_0" index="0" allow="pedestrian" speed="2.78" length="42.01" width="4.00" shape="16.80,-10.40 -25.20,-8.40 -25.20,-6.40 -12.37,-6.51 -1.87,-6.84 6.30,-7.40 12.13,-8.18 15.63,-9.18"/>
    </edge>
    <edge id=":J1_w3" function="walkingarea">
        <lane id=":J1_w3_0" index="0" allow="pedestrian" speed="2.78" length="2.24" width="4.00" shape="-25.20,6.40 -25.20,8.40 -23.20,10.40 -23.26,9.18 -23.42,8.18 -23.70,7.40 -24.09,6.84 -24.59,6.51"/>
    </edge>
    <edge id=":J2_w0" function="walkingarea">
        <lane id=":J2_w0_0" index="0" allow="pedestrian" speed="2.78" length="14.80" width="2.00" shape="200.00,6.40 200.00,8.40 200.00,-8.40 200.00,-6.40"/>
    </edge>

    <edge id="A_in" from="J0" to="J1" priority="5">
        <lane id="A_in_0" index="0" allow="pedestrian" speed="13.89" length="174.80" width="2.00" shape="-200.00,-7.40 -25.20,-7.40"/>
        <lane id="A_in_1" index="1" disallow="pedestrian" speed="13.89" length="174.80" shape="-200.00,-4.80 -25.20,-4.80"/>
        <lane id="A_in_2" index="2" disallow="pedestrian" speed="13.89" length="174.80" shape="-200.00,-1.60 -25.20,-1.60"/>
    </edge>
    <edge id="A_out" from="J1" to="J0" priority="5">
        <lane id="A_out_0" index="0" allow="pedestrian" speed="13.89" length="174.80" width="2.00" shape="-25.20,7.40 -200.00,7.40"/>
        <lane id="A_out_1" index="1" disallow="pedestrian" speed="13.89" length="174.80" shape="-25.20,4.80 -200.00,4.80"/>
        <lane id="A_out_2" index="2" disallow="pedestrian" speed="13.89" length="174.80" shape="-25.20,1.60 -200.00,1.60"/>
    </edge>
    <edge id="B_in" from="J4" to="J1" priority="1" shape="20.00,-200.00 20.00,0.00">
        <lane id="B_in_0" index="0" disallow="pedestrian" speed="13.89" length="189.60" shape="21.60,-200.00 21.60,-10.40"/>
    </edge>
    <edge id="B_out" from="J1" to="J4" priority="1" shape="20.00,0.00 20.00,-200.00">
        <lane id="B_out_0" index="0" disallow="pedestrian" speed="13.89" length="189.60" shape="18.40,-10.40 18.40,-200.00"/>
    </edge>
    <edge id="C_in" from="J2" to="J1" priority="5">
        <lane id="C_in_0" index="0" allow="pedestrian" speed="13.89" length="174.80" width="2.00" shape="200.00,7.40 25.20,7.40"/>
        <lane id="C_in_1" index="1" disallow="pedestrian" speed="13.89" length="174.80" shape="200.00,4.80 25.20,4.80"/>
        <lane id="C_in_2" index="2" disallow="pedestrian" speed="13.89" length="174.80" shape="200.00,1.60 25.20,1.60"/>
    </edge>
    <edge id="C_out" from="J1" to="J2" priority="5">
        <lane id="C_out_0" index="0" allow="pedestrian" speed="13.89" length="174.80" width="2.00" shape="25.20,-7.40 200.00,-7.40"/>
        <lane id="C_out_1" index="1" disallow="pedestrian" speed="13.89" length="174.80" shape="25.20,-4.80 200.00,-4.80"/>
        <lane id="C_out_2" index="2" disallow="pedestrian" speed="13.89" length="174.80" shape="25.20,-1.60 200.00,-1.60"/>
    </edge>
    <edge id="D_in" from="J3" to="J1" priority="1" shape="-20.00,200.00 -20.00,0.00">
        <lane id="D_in_0" index="0" disallow="pedestrian" speed="13.89" length="189.60" shape="-21.60,200.00 -21.60,10.40"/>
    </edge>
    <edge id="D_out" from="J1" to="J3" priority="1" shape="-20.00,0.00 -20.00,200.00">
        <lane id="D_out_0" index="0" disallow="pedestrian" speed="13.89" length="189.60" shape="-18.40,10.40 -18.40,200.00"/>
    </edge>

    <junction id="J0" type="dead_end" x="-200.00" y="0.00" incLanes="A_out_0 A_out_1 A_out_2" intLanes="" shape="-200.00,0.00 -200.00,8.40 -200.00,0.00"/>
    <junction id="J1" type="priority" x="0.00" y="0.00" incLanes="D_in_0 C_in_0 C_in_1 C_in_2 B_in_0 A_in_0 A_in_1 A_in_2 :J1_w0_0 :J1_w2_0" intLanes=":J1_0_0 :J1_1_0 :J1_2_0 :J1_3_0 :J1_4_0 :J1_4_1 :J1_14_0 :J1_7_0 :J1_8_0 :J1_9_0 :J1_10_0 :J1_11_0 :J1_11_1 :J1_15_0 :J1_c0_0 :J1_c1_0" shape="-23.20,10.40 -16.80,10.40 -12.13,9.29 -6.30,8.90 1.87,8.62 12.37,8.46 25.20,8.40 25.20,-8.40 24.09,-8.62 23.70,-8.90 23.42,-9.29 23.26,-9.79 23.20,-10.40 16.80,-10.40 12.13,-9.29 6.30,-8.90 -1.87,-8.62 -12.37,-8.46 -25.20,-8.40 -25.20,8.40 -24.09,8.62 -23.70,8.90 -23.42,9.29 -23.26,9.79">
        <request index="0"  response="0000000000110000" foes="0100000000110000" cont="0"/>
        <request index="1"  response="0011110001110000" foes="1111111001110000" cont="0"/>
        <request index="2"  response="0011100101110000" foes="0111100101110000" cont="0"/>
        <request index="3"  response="0100000000000000" foes="0110000100000000" cont="0"/>
        <request index="4"  response="0000000000000000" foes="0010001100000111" cont="0"/>
        <request index="5"  response="0000000000000000" foes="0010001100000111" cont="0"/>
        <request index="6"  response="1001110000000000" foes="1001111100000110" cont="1"/>
        <request index="7"  response="0001100000000000" foes="1001100000000000" cont="0"/>
        <request index="8"  response="0011100001111000" foes="1111100001111100" cont="0"/>
        <request index="9"  response="0011100001110010" foes="1011100001110010" cont="0"/>
        <request index="10" response="1000000000000000" foes="1000000001000010" cont="0"/>
        <request index="11" response="0000000000000000" foes="0000001111000110" cont="0"/>
        <request index="12" response="0000000000000000" foes="0000001111000110" cont="0"/>
        <request index="13" response="0100000000111000" foes="0100001100111110" cont="1"/>
        <request index="14" response="0000000100000111" foes="0010000100001111" cont="0"/>
        <request index="15" response="0000001110000010" foes="0000011111000010" cont="0"/>
    </junction>
    <junction id="J2" type="dead_end" x="200.00" y="0.00" incLanes="C_out_0 C_out_1 C_out_2" intLanes="" shape="200.00,0.00 200.00,-8.40 200.00,0.00"/>
    <junction id="J3" type="dead_end" x="-20.00" y="200.00" incLanes="D_out_0" intLanes="" shape="-20.00,200.00 -16.80,200.00 -20.00,200.00"/>
    <junction id="J4" type="dead_end" x="20.00" y="-200.00" incLanes="B_out_0" intLanes="" shape="20.00,-200.00 16.80,-200.00 20.00,-200.00"/>

    <junction id=":J1_14_0" type="internal" x="22.42" y="0.90" incLanes=":J1_6_0 A_in_1 A_in_2" intLanes=":J1_1_0 :J1_2_0 :J1_8_0 :J1_9_0 :J1_10_0 :J1_11_0 :J1_11_1 :J1_c1_0"/>
    <junction id=":J1_15_0" type="internal" x="-22.42" y="-0.90" incLanes=":J1_13_0 C_in_1 C_in_2" intLanes=":J1_1_0 :J1_2_0 :J1_3_0 :J1_4_0 :J1_4_1 :J1_8_0 :J1_9_0 :J1_c0_0"/>

    <connection from="A_in" to="B_out" fromLane="1" toLane="0" via=":J1_10_0" dir="r" state="m"/>
    <connection from="A_in" to="C_out" fromLane="1" toLane="1" via=":J1_11_0" dir="s" state="M"/>
    <connection from="A_in" to="C_out" fromLane="2" toLane="2" via=":J1_11_1" dir="s" state="M"/>
    <connection from="A_in" to="D_out" fromLane="2" toLane="0" via=":J1_13_0" dir="l" state="m"/>
    <connection from="B_in" to="C_out" fromLane="0" toLane="1" via=":J1_7_0" dir="r" state="m"/>
    <connection from="B_in" to="D_out" fromLane="0" toLane="0" via=":J1_8_0" dir="s" state="m"/>
    <connection from="B_in" to="A_out" fromLane="0" toLane="2" via=":J1_9_0" dir="l" state="m"/>
    <connection from="C_in" to="D_out" fromLane="1" toLane="0" via=":J1_3_0" dir="r" state="m"/>
    <connection from="C_in" to="A_out" fromLane="1" toLane="1" via=":J1_4_0" dir="s" state="M"/>
    <connection from="C_in" to="A_out" fromLane="2" toLane="2" via=":J1_4_1" dir="s" state="M"/>
    <connection from="C_in" to="B_out" fromLane="2" toLane="0" via=":J1_6_0" dir="l" state="m"/>
    <connection from="D_in" to="A_out" fromLane="0" toLane="1" via=":J1_0_0" dir="r" state="m"/>
    <connection from="D_in" to="B_out" fromLane="0" toLane="0" via=":J1_1_0" dir="s" state="m"/>
    <connection from="D_in" to="C_out" fromLane="0" toLane="2" via=":J1_2_0" dir="l" state="m"/>

    <connection from=":J1_0" to="A_out" fromLane="0" toLane="1" dir="r" state="M"/>
    <connection from=":J1_1" to="B_out" fromLane="0" toLane="0" dir="s" state="M"/>
    <connection from=":J1_2" to="C_out" fromLane="0" toLane="2" dir="l" state="M"/>
    <connection from=":J1_3" to="D_out" fromLane="0" toLane="0" dir="r" state="M"/>
    <connection from=":J1_4" to="A_out" fromLane="0" toLane="1" dir="s" state="M"/>
    <connection from=":J1_4" to="A_out" fromLane="1" toLane="2" dir="s" state="M"/>
    <connection from=":J1_6" to="B_out" fromLane="0" toLane="0" via=":J1_14_0" dir="l" state="m"/>
    <connection from=":J1_14" to="B_out" fromLane="0" toLane="0" dir="l" state="m"/>
    <connection from=":J1_7" to="C_out" fromLane="0" toLane="1" dir="r" state="M"/>
    <connection from=":J1_8" to="D_out" fromLane="0" toLane="0" dir="s" state="M"/>
    <connection from=":J1_9" to="A_out" fromLane="0" toLane="2" dir="l" state="M"/>
    <connection from=":J1_10" to="B_out" fromLane="0" toLane="0" dir="r" state="M"/>
    <connection from=":J1_11" to="C_out" fromLane="0" toLane="1" dir="s" state="M"/>
    <connection from=":J1_11" to="C_out" fromLane="1" toLane="2" dir="s" state="M"/>
    <connection from=":J1_13" to="D_out" fromLane="0" toLane="0" via=":J1_15_0" dir="l" state="m"/>
    <connection from=":J1_15" to="D_out" fromLane="0" toLane="0" dir="l" state="m"/>

    <connection from=":J0_w0" to="A_in" fromLane="0" toLane="0" dir="s" state="M"/>
    <connection from="A_out" to=":J0_w0" fromLane="0" toLane="0" dir="s" state="M"/>
    <connection from=":J1_c0" to=":J1_w3" fromLane="0" toLane="0" dir="s" state="M"/>
    <connection from=":J1_c1" to=":J1_w1" fromLane="0" toLane="0" dir="s" state="M"/>
    <connection from=":J1_w0" to=":J1_c0" fromLane="0" toLane="0" dir="s" state="m"/>
    <connection from="C_in" to=":J1_w0" fromLane="0" toLane="0" dir="s" state="M"/>
    <connection from=":J1_w1" to="C_out" fromLane="0" toLane="0" dir="s" state="M"/>
    <connection from=":J1_w2" to=":J1_c1" fromLane="0" toLane="0" dir="s" state="m"/>
    <connection from="A_in" to=":J1_w2" fromLane="0" toLane="0" dir="s" state="M"/>
    <connection from=":J1_w3" to="A_out" fromLane="0" toLane="0" dir="s" state="M"/>
    <connection from=":J2_w0" to="C_in" fromLane="0" toLane="0" dir="s" state="M"/>
    <connection from="C_out" to=":J2_w0" fromLane="0" toLane="0" dir="s" state="M"/>
</net>
