<?xml version="1.0" encoding="UTF-8"?>

<!-- generated on 2025-01-08 10:01:06 by Eclipse SUMO netedit Version 1.19.0
<configuration xmlns:xsi="http://www.w3.org/2001/XMLSchema-instance" xsi:noNamespaceSchemaLocation="http://sumo.dlr.de/xsd/neteditConfiguration.xsd">

    <input>
        <sumo-net-file value="C:\Users\VargaBalazs\Desktop\Projektek\EKOP-multimodal\Scenarios\Scenarios\Variant14_p44v2.net.xml"/>
    </input>

    <output>
        <output-file value="C:\Users\VargaBalazs\Desktop\Projektek\EKOP-multimodal\Scenarios\Scenarios\Variant14_p44v2.net.xml"/>
    </output>

    <processing>
        <geometry.min-radius.fix.railways value="false"/>
        <geometry.max-grade.fix value="false"/>
        <offset.disable-normalization value="true"/>
        <lefthand value="0"/>
    </processing>

    <junctions>
        <no-internal-links value="false"/>
        <no-turnarounds value="true"/>
        <junctions.corner-detail value="5"/>
        <junctions.limit-turn-speed value="5.50"/>
        <rectangular-lane-cut value="0"/>
    </junctions>

    <pedestrian>
        <walkingareas value="0"/>
    </pedestrian>

</configuration>
-->

<net version="1.16" junctionCornerDetail="5" limitTurnSpeed="5.50" xmlns:xsi="http://www.w3.org/2001/XMLSchema-instance" xsi:noNamespaceSchemaLocation="http://sumo.dlr.de/xsd/net_file.xsd">

    <location netOffset="0.00,0.00" convBoundary="-200.00,-100.00,200.00,100.00" origBoundary="-10000000000.00,-10000000000.00,10000000000.00,10000000000.00" projParameter="!"/>

    <edge id=":J0_w0" function="walkingarea">
        <lane id=":J0_w0_0" index="0" allow="pedestrian" speed="2.78" length="10.40" width="4.00" shape="-200.00,-3.20 -200.00,-7.20 -200.00,7.20 -200.00,3.20"/>
    </edge>
    <edge id=":J1_0" function="internal">
        <lane id=":J1_0_0" index="0" allow="bicycle" speed="13.89" length="57.25" width="1.00" shape="24.76,22.10 9.81,14.88 -6.90,8.68 -22.24,4.34 -29.05,3.31"/>
    </edge>
    <edge id=":J1_1" function="internal">
        <lane id=":J1_1_0" index="0" allow="bicycle" speed="13.89" length="64.92" width="1.00" shape="24.76,22.10 -31.61,-10.11"/>
    </edge>
    <edge id=":J1_2" function="internal">
        <lane id=":J1_2_0" index="0" disallow="pedestrian" speed="13.89" length="2.55" shape="25.80,20.27 23.50,19.19"/>
    </edge>
    <edge id=":J1_3" function="internal">
        <lane id=":J1_3_0" index="0" disallow="pedestrian" speed="13.89" length="64.92" shape="25.80,20.27 -30.57,-11.94"/>
        <lane id=":J1_3_1" index="1" disallow="pedestrian" speed="13.89" length="64.92" shape="27.39,17.49 -28.98,-14.72"/>
    </edge>
    <edge id=":J1_5" function="internal">
        <lane id=":J1_5_0" index="0" disallow="pedestrian" speed="8.22" length="2.35" shape="27.39,17.49 25.83,15.74"/>
    </edge>
    <edge id=":J1_15" function="internal">
        <lane id=":J1_15_0" index="0" allow="bicycle" speed="13.89" length="4.05" width="1.00" shape="-29.05,3.31 -33.05,2.70"/>
    </edge>
    <edge id=":J1_16" function="internal">
        <lane id=":J1_16_0" index="0" disallow="pedestrian" speed="13.89" length="59.53" shape="23.50,19.19 10.69,13.17 -6.38,7.22 -22.07,3.12 -33.05,1.60"/>
    </edge>
    <edge id=":J1_17" function="internal">
        <lane id=":J1_17_0" index="0" disallow="pedestrian" speed="8.22" length="24.74" shape="25.83,15.74 22.67,12.20 22.47,5.89 26.14,0.61 33.05,-1.60"/>
    </edge>
    <edge id=":J1_6" function="internal">
        <lane id=":J1_6_0" index="0" allow="bicycle" speed="6.54" length="12.45" width="1.00" shape="33.05,2.70 27.55,3.16 25.48,4.55 26.83,6.87 28.29,7.86"/>
        <lane id=":J1_6_1" index="1" disallow="pedestrian" speed="7.65" length="19.21" shape="33.05,1.60 25.18,2.25 22.14,4.18 23.94,7.42 27.25,9.68"/>
    </edge>
    <edge id=":J1_18" function="internal">
        <lane id=":J1_18_0" index="0" allow="bicycle" speed="6.54" length="4.01" width="1.00" shape="28.29,7.86 31.61,10.11"/>
    </edge>
    <edge id=":J1_19" function="internal">
        <lane id=":J1_19_0" index="0" disallow="pedestrian" speed="7.65" length="4.01" shape="27.25,9.68 30.57,11.94"/>
    </edge>
    <edge id=":J1_8" function="internal">
        <lane id=":J1_8_0" index="0" allow="bicycle" speed="13.89" length="57.25" width="1.00" shape="-24.76,-22.10 -9.81,-14.88 6.90,-8.68 22.24,-4.34 29.05,-3.31"/>
    </edge>
    <edge id=":J1_9" function="internal">
        <lane id=":J1_9_0" index="0" allow="bicycle" speed="13.89" length="64.92" width="1.00" shape="-24.76,-22.10 31.61,10.11"/>
    </edge>
    <edge id=":J1_10" function="internal">
        <lane id=":J1_10_0" index="0" disallow="pedestrian" speed="13.89" length="2.55" shape="-25.80,-20.27 -23.50,-19.19"/>
    </edge>
    <edge id=":J1_11" function="internal">
        <lane id=":J1_11_0" index="0" disallow="pedestrian" speed="13.89" length="64.92" shape="-25.80,-20.27 30.57,11.94"/>
        <lane id=":J1_11_1" index="1" disallow="pedestrian" speed="13.89" length="64.92" shape="-27.39,-17.49 28.98,14.72"/>
    </edge>
    <edge id=":J1_20" function="internal">
        <lane id=":J1_20_0" index="0" allow="bicycle" speed="13.89" length="4.05" width="1.00" shape="29.05,-3.31 33.05,-2.70"/>
    </edge>
    <edge id=":J1_21" function="internal">
        <lane id=":J1_21_0" index="0" disallow="pedestrian" speed="13.89" length="59.53" shape="-23.50,-19.19 -10.69,-13.17 6.38,-7.22 22.07,-3.12 33.05,-1.60"/>
    </edge>
    <edge id=":J1_13" function="internal">
        <lane id=":J1_13_0" index="0" allow="bicycle" speed="6.54" length="12.45" width="1.00" shape="-33.05,-2.70 -27.55,-3.16 -25.48,-4.55 -26.83,-6.87 -28.29,-7.86"/>
        <lane id=":J1_13_1" index="1" disallow="pedestrian" speed="7.65" length="19.21" shape="-33.05,-1.60 -25.18,-2.25 -22.14,-4.18 -23.94,-7.42 -27.25,-9.68"/>
    </edge>
    <edge id=":J1_22" function="internal">
        <lane id=":J1_22_0" index="0" allow="bicycle" speed="6.54" length="4.01" width="1.00" shape="-28.29,-7.86 -31.61,-10.11"/>
    </edge>
    <edge id=":J1_23" function="internal">
        <lane id=":J1_23_0" index="0" disallow="pedestrian" speed="7.65" length="4.01" shape="-27.25,-9.68 -30.57,-11.94"/>
    </edge>
    <edge id=":J1_c0" function="crossing" crossingEdges="D_out D_in">
        <lane id=":J1_c0_0" index="0" allow="pedestrian" speed="2.78" length="14.80" width="4.00" shape="30.12,8.69 22.78,21.54"/>
    </edge>
    <edge id=":J1_c1" function="crossing" crossingEdges="C_out C_in">
        <lane id=":J1_c1_0" index="0" allow="pedestrian" speed="2.78" length="6.40" width="4.00" shape="31.05,-3.20 31.05,3.20"/>
    </edge>
    <edge id=":J1_c2" function="crossing" crossingEdges="B_out B_in">
        <lane id=":J1_c2_0" index="0" allow="pedestrian" speed="2.78" length="14.80" width="4.00" shape="-30.12,-8.69 -22.78,-21.54"/>
    </edge>
    <edge id=":J1_c3" function="crossing" crossingEdges="A_out A_in">
        <lane id=":J1_c3_0" index="0" allow="pedestrian" speed="2.78" length="6.40" width="4.00" shape="-31.05,3.20 -31.05,-3.20"/>
    </edge>
    <edge id=":J1_w0" function="walkingarea">
        <lane id=":J1_w0_0" index="0" allow="pedestrian" speed="2.78" length="39.77" width="4.00" shape="-33.05,3.20 -33.05,7.20 23.52,24.27 24.51,22.53 14.45,16.79 5.50,12.01 -3.03,8.21 -11.84,5.46 -21.61,3.77"/>
    </edge>
    <edge id=":J1_w1" function="walkingarea">
        <lane id=":J1_w1_0" index="0" allow="pedestrian" speed="2.78" length="4.10" width="4.00" shape="31.86,9.68 32.85,7.94 33.05,7.20 33.05,3.20 32.06,3.60 31.34,4.64 30.91,6.03 30.83,7.52 31.13,8.82"/>
    </edge>
    <edge id=":J1_w2" function="walkingarea">
        <lane id=":J1_w2_0" index="0" allow="pedestrian" speed="2.78" length="39.77" width="4.00" shape="33.05,-3.20 33.05,-7.20 -23.52,-24.27 -24.51,-22.53 -14.45,-16.79 -5.50,-12.01 3.03,-8.21 11.84,-5.46 21.61,-3.77"/>
    </edge>
    <edge id=":J1_w3" function="walkingarea">
        <lane id=":J1_w3_0" index="0" allow="pedestrian" speed="2.78" length="4.10" width="4.00" shape="-31.86,-9.68 -32.85,-7.94 -33.05,-7.20 -33.05,-3.20 -32.06,-3.60 -31.34,-4.64 -30.91,-6.03 -30.83,-7.52 -31.13,-8.82"/>
    </edge>
    <edge id=":J2_w0" function="walkingarea">
        <lane id=":J2_w0_0" index="0" allow="pedestrian" speed="2.78" length="10.40" width="4.00" shape="200.00,3.20 200.00,7.20 200.00,-7.20 200.00,-3.20"/>
    </edge>
    <edge id=":J3_w0" function="walkingarea">
        <lane id=":J3_w0_0" index="0" allow="pedestrian" speed="2.78" length="16.80" width="2.00" shape="171.33,106.42 170.34,108.16 179.66,91.84 178.67,93.58"/>
    </edge>
    <edge id=":J4_w0" function="walkingarea">
        <lane id=":J4_w0_0" index="0" allow="pedestrian" speed="2.78" length="16.80" width="2.00" shape="-171.33,-106.42 -170.34,-108.16 -179.66,-91.84 -178.67,-93.58"/>
    </edge>

    <edge id="A_in" from="J0" to="J1" priority="2">
        <lane id="A_in_0" index="0" allow="pedestrian" speed="13.89" length="166.95" width="4.00" shape="-200.00,-5.20 -33.05,-5.20"/>
        <lane id="A_in_1" index="1" disallow="pedestrian" speed="13.89" length="166.95" shape="-200.00,-1.60 -33.05,-1.60"/>
    </edge>
    <edge id="A_out" from="J1" to="J0" priority="2">
        <lane id="A_out_0" index="0" allow="pedestrian" speed="13.89" length="166.95" width="4.00" shape="-33.05,5.20 -200.00,5.20"/>
        <lane id="A_out_1" index="1" disallow="pedestrian" speed="13.89" length="166.95" shape="-33.05,1.60 -200.00,1.60"/>
    </edge>
    <edge id="B_in" from="J4" to="J1" priority="8">
        <lane id="B_in_0" index="0" allow="pedestrian" speed="13.89" length="169.09" width="2.00" shape="-170.83,-107.29 -24.02,-23.40"/>
        <lane id="B_in_1" index="1" allow="bicycle" speed="13.89" length="169.09" width="1.00" shape="-171.58,-105.99 -24.76,-22.10"/>
        <lane id="B_in_2" index="2" disallow="pedestrian" speed="13.89" length="169.09" shape="-172.62,-104.17 -25.80,-20.27"/>
        <lane id="B_in_3" index="3" disallow="pedestrian" speed="13.89" length="169.09" shape="-174.21,-101.39 -27.39,-17.49"/>
    </edge>
    <edge id="B_out" from="J1" to="J4" priority="8">
        <lane id="B_out_0" index="0" allow="pedestrian" speed="13.89" length="169.09" width="2.00" shape="-32.35,-8.81 -179.17,-92.71"/>
        <lane id="B_out_1" index="1" allow="bicycle" speed="13.89" length="169.09" width="1.00" shape="-31.61,-10.11 -178.42,-94.01"/>
        <lane id="B_out_2" index="2" disallow="pedestrian" speed="13.89" length="169.09" shape="-30.57,-11.94 -177.38,-95.83"/>
        <lane id="B_out_3" index="3" disallow="pedestrian" speed="13.89" length="169.09" shape="-28.98,-14.72 -175.79,-98.61"/>
    </edge>
    <edge id="C_in" from="J2" to="J1" priority="2">
        <lane id="C_in_0" index="0" allow="pedestrian" speed="13.89" length="166.95" width="4.00" shape="200.00,5.20 33.05,5.20"/>
        <lane id="C_in_1" index="1" disallow="pedestrian" speed="13.89" length="166.95" shape="200.00,1.60 33.05,1.60"/>
    </edge>
    <edge id="C_out" from="J1" to="J2" priority="2">
        <lane id="C_out_0" index="0" allow="pedestrian" speed="13.89" length="166.95" width="4.00" shape="33.05,-5.20 200.00,-5.20"/>
        <lane id="C_out_1" index="1" disallow="pedestrian" speed="13.89" length="166.95" shape="33.05,-1.60 200.00,-1.60"/>
    </edge>
    <edge id="D_in" from="J3" to="J1" priority="8">
        <lane id="D_in_0" index="0" allow="pedestrian" speed="13.89" length="169.09" width="2.00" shape="170.83,107.29 24.02,23.40"/>
        <lane id="D_in_1" index="1" allow="bicycle" speed="13.89" length="169.09" width="1.00" shape="171.58,105.99 24.76,22.10"/>
        <lane id="D_in_2" index="2" disallow="pedestrian" speed="13.89" length="169.09" shape="172.62,104.17 25.80,20.27"/>
        <lane id="D_in_3" index="3" disallow="pedestrian" speed="13.89" length="169.09" shape="174.21,101.39 27.39,17.49"/>
    </edge>
    <edge id="D_out" from="J1" to="J3" priority="8">
        <lane id="D_out_0" index="0" allow="pedestrian" speed="13.89" length="169.09" width="2.00" shape="32.35,8.81 179.17,92.71"/>
        <lane id="D_out_1" index="1" allow="bicycle" speed="13.89" length="169.09" width="1.00" shape="31.61,10.11 178.42,94.01"/>
        <lane id="D_out_2" index="2" disallow="pedestrian" speed="13.89" length="169.09" shape="30.57,11.94 177.38,95.83"/>
        <lane id="D_out_3" index="3" disallow="pedestrian" speed="13.89" length="169.09" shape="28.98,14.72 175.79,98.61"/>
    </edge>

    <tlLogic id="J1" type="static" programID="0" offset="0">
        <phase duration="36" state="GGgGGgrrGGgGGrrrrrr"/>
        <phase duration="3"  state="yyyyyyrryyyyyrrrrrr"/>
        <phase duration="2"  state="rrrrrrrrrrrrrrrrrrr"/>
        <phase duration="30" state="rrrrrrggrrrrrggGrGr"/>
        <phase duration="5"  state="rrrrrrggrrrrrggrrrr"/>
        <phase duration="3"  state="rrrrrryyrrrrryyrrrr"/>
        <phase duration="1"  state="rrrrrrrrrrrrrrrrrrr"/>
        <phase duration="5"  state="rrrrrrrrrrrrrrrGGGG"/>
        <phase duration="5"  state="rrrrrrrrrrrrrrrrrrr"/>
    </tlLogic>

    <junction id="J0" type="dead_end" x="-200.00" y="0.00" incLanes="A_out_0 A_out_1" intLanes="" shape="-200.00,0.00 -200.00,7.20 -200.00,0.00"/>
    <junction id="J1" type="traffic_light" x="0.00" y="0.00" incLanes="D_in_0 D_in_1 D_in_2 D_in_3 C_in_0 C_in_1 B_in_0 B_in_1 B_in_2 B_in_3 A_in_0 A_in_1 :J1_w1_0 :J1_w2_0 :J1_w3_0 :J1_w0_0" intLanes=":J1_15_0 :J1_1_0 :J1_16_0 :J1_3_0 :J1_3_1 :J1_17_0 :J1_18_0 :J1_19_0 :J1_20_0 :J1_9_0 :J1_21_0 :J1_11_0 :J1_11_1 :J1_22_0 :J1_23_0 :J1_c0_0 :J1_c1_0 :J1_c2_0 :J1_c3_0" shape="23.52,24.27 32.85,7.94 33.05,7.20 33.05,-7.20 21.68,-7.60 12.09,-8.87 3.53,-11.08 -4.76,-14.33 -13.53,-18.70 -23.52,-24.27 -32.85,-7.94 -33.05,-7.20 -33.05,7.20 -21.68,7.60 -12.09,8.87 -3.53,11.08 4.76,14.33 13.53,18.70">
        <request index="0"  response="1001000000000000000" foes="1001000000000000100" cont="1"/>
        <request index="1"  response="0101110000000000000" foes="0101110000000000100" cont="0"/>
        <request index="2"  response="1001000000000000011" foes="1001000000000000011" cont="1"/>
        <request index="3"  response="0101100000000000000" foes="0101100000000000000" cont="0"/>
        <request index="4"  response="0101100000000000000" foes="0101100000000000000" cont="0"/>
        <request index="5"  response="0011001111100000000" foes="0011001111100000000" cont="1"/>
        <request index="6"  response="0011000001000000000" foes="0011000001000000000" cont="1"/>
        <request index="7"  response="0011001101000000000" foes="0011001101000000000" cont="1"/>
        <request index="8"  response="0110000000000000000" foes="0110000010000100000" cont="1"/>
        <request index="9"  response="0101000000011000000" foes="0101000010011100000" cont="0"/>
        <request index="10" response="0110000001100000000" foes="0110000001100100000" cont="1"/>
        <request index="11" response="0101000000010000000" foes="0101000000010100000" cont="0"/>
        <request index="12" response="0101000000010000000" foes="0101000000010100000" cont="0"/>
        <request index="13" response="1100000000000000010" foes="1100000000000000010" cont="1"/>
        <request index="14" response="1100000000000011010" foes="1100000000000011010" cont="1"/>
        <request index="15" response="0000000000000000000" foes="0000001101011111111" cont="0"/>
        <request index="16" response="0000000000000000000" foes="0000000010111100000" cont="0"/>
        <request index="17" response="0000000000000000000" foes="0000111111100011010" cont="0"/>
        <request index="18" response="0000000000000000000" foes="0000110000000000101" cont="0"/>
    </junction>
    <junction id="J2" type="dead_end" x="200.00" y="0.00" incLanes="C_out_0 C_out_1" intLanes="" shape="200.00,0.00 200.00,-7.20 200.00,0.00"/>
    <junction id="J3" type="dead_end" x="175.00" y="100.00" incLanes="D_out_0 D_out_1 D_out_2 D_out_3" intLanes="" shape="175.00,100.00 179.66,91.84 175.00,100.00"/>
    <junction id="J4" type="dead_end" x="-175.00" y="-100.00" incLanes="B_out_0 B_out_1 B_out_2 B_out_3" intLanes="" shape="-175.00,-100.00 -179.66,-91.84 -175.00,-100.00"/>

    <junction id=":J1_15_0" type="internal" x="-29.05" y="3.31" incLanes=":J1_0_0" intLanes=":J1_2_0 :J1_c0_0 :J1_c3_0"/>
    <junction id=":J1_16_0" type="internal" x="23.50" y="19.19" incLanes=":J1_2_0 D_in_1" intLanes=":J1_0_0 :J1_1_0 :J1_c0_0 :J1_c3_0"/>
    <junction id=":J1_17_0" type="internal" x="25.83" y="15.74" incLanes=":J1_5_0 B_in_1 B_in_2 B_in_3" intLanes=":J1_8_0 :J1_9_0 :J1_10_0 :J1_11_0 :J1_11_1 :J1_c0_0 :J1_c1_0"/>
    <junction id=":J1_18_0" type="internal" x="28.29" y="7.86" incLanes=":J1_6_0" intLanes=":J1_9_0 :J1_11_0 :J1_11_1 :J1_c0_0 :J1_c1_0"/>
    <junction id=":J1_19_0" type="internal" x="27.25" y="9.68" incLanes=":J1_6_1" intLanes=":J1_9_0 :J1_11_0 :J1_11_1 :J1_c0_0 :J1_c1_0"/>
    <junction id=":J1_20_0" type="internal" x="29.05" y="-3.31" incLanes=":J1_8_0" intLanes=":J1_5_0 :J1_10_0 :J1_c1_0 :J1_c2_0"/>
    <junction id=":J1_21_0" type="internal" x="-23.50" y="-19.19" incLanes=":J1_10_0 B_in_1" intLanes=":J1_5_0 :J1_8_0 :J1_9_0 :J1_c1_0 :J1_c2_0"/>
    <junction id=":J1_22_0" type="internal" x="-28.29" y="-7.86" incLanes=":J1_13_0" intLanes=":J1_1_0 :J1_3_0 :J1_3_1 :J1_c2_0 :J1_c3_0"/>
    <junction id=":J1_23_0" type="internal" x="-27.25" y="-9.68" incLanes=":J1_13_1" intLanes=":J1_1_0 :J1_3_0 :J1_3_1 :J1_c2_0 :J1_c3_0"/>

    <connection from="A_in" to="B_out" fromLane="1" toLane="1" via=":J1_13_0" tl="J1" linkIndex="13" dir="r" state="o"/>
    <connection from="A_in" to="B_out" fromLane="1" toLane="2" via=":J1_13_1" tl="J1" linkIndex="14" dir="r" state="o"/>
    <connection from="B_in" to="C_out" fromLane="1" toLane="1" via=":J1_8_0" tl="J1" linkIndex="8" dir="R" state="o"/>
    <connection from="B_in" to="D_out" fromLane="1" toLane="1" via=":J1_9_0" tl="J1" linkIndex="9" dir="s" state="o"/>
    <connection from="B_in" to="C_out" fromLane="2" toLane="1" via=":J1_10_0" tl="J1" linkIndex="10" dir="R" state="o"/>
    <connection from="B_in" to="D_out" fromLane="2" toLane="2" via=":J1_11_0" tl="J1" linkIndex="11" dir="s" state="o"/>
    <connection from="B_in" to="D_out" fromLane="3" toLane="3" via=":J1_11_1" tl="J1" linkIndex="12" dir="s" state="o"/>
    <connection from="C_in" to="D_out" fromLane="1" toLane="1" via=":J1_6_0" tl="J1" linkIndex="6" dir="r" state="o"/>
    <connection from="C_in" to="D_out" fromLane="1" toLane="2" via=":J1_6_1" tl="J1" linkIndex="7" dir="r" state="o"/>
    <connection from="D_in" to="A_out" fromLane="1" toLane="1" via=":J1_0_0" tl="J1" linkIndex="0" dir="R" state="o"/>
    <connection from="D_in" to="B_out" fromLane="1" toLane="1" via=":J1_1_0" tl="J1" linkIndex="1" dir="s" state="o"/>
    <connection from="D_in" to="A_out" fromLane="2" toLane="1" via=":J1_2_0" tl="J1" linkIndex="2" dir="R" state="o"/>
    <connection from="D_in" to="B_out" fromLane="2" toLane="2" via=":J1_3_0" tl="J1" linkIndex="3" dir="s" state="o"/>
    <connection from="D_in" to="B_out" fromLane="3" toLane="3" via=":J1_3_1" tl="J1" linkIndex="4" dir="s" state="o"/>
    <connection from="D_in" to="C_out" fromLane="3" toLane="1" via=":J1_5_0" tl="J1" linkIndex="5" dir="l" state="o"/>

    <connection from=":J1_0" to="A_out" fromLane="0" toLane="1" via=":J1_15_0" dir="R" state="m"/>
    <connection from=":J1_15" to="A_out" fromLane="0" toLane="1" dir="R" state="m"/>
    <connection from=":J1_1" to="B_out" fromLane="0" toLane="1" dir="s" state="M"/>
    <connection from=":J1_2" to="A_out" fromLane="0" toLane="1" via=":J1_16_0" dir="R" state="m"/>
    <connection from=":J1_16" to="A_out" fromLane="0" toLane="1" dir="R" state="m"/>
    <connection from=":J1_3" to="B_out" fromLane="0" toLane="2" dir="s" state="M"/>
    <connection from=":J1_3" to="B_out" fromLane="1" toLane="3" dir="s" state="M"/>
    <connection from=":J1_5" to="C_out" fromLane="0" toLane="1" via=":J1_17_0" dir="l" state="m"/>
    <connection from=":J1_17" to="C_out" fromLane="0" toLane="1" dir="l" state="m"/>
    <connection from=":J1_6" to="D_out" fromLane="0" toLane="1" via=":J1_18_0" dir="r" state="m"/>
    <connection from=":J1_18" to="D_out" fromLane="0" toLane="1" dir="r" state="m"/>
    <connection from=":J1_6" to="D_out" fromLane="1" toLane="2" via=":J1_19_0" dir="r" state="m"/>
    <connection from=":J1_19" to="D_out" fromLane="0" toLane="2" dir="r" state="m"/>
    <connection from=":J1_8" to="C_out" fromLane="0" toLane="1" via=":J1_20_0" dir="R" state="m"/>
    <connection from=":J1_20" to="C_out" fromLane="0" toLane="1" dir="R" state="m"/>
    <connection from=":J1_9" to="D_out" fromLane="0" toLane="1" dir="s" state="M"/>
    <connection from=":J1_10" to="C_out" fromLane="0" toLane="1" via=":J1_21_0" dir="R" state="m"/>
    <connection from=":J1_21" to="C_out" fromLane="0" toLane="1" dir="R" state="m"/>
    <connection from=":J1_11" to="D_out" fromLane="0" toLane="2" dir="s" state="M"/>
    <connection from=":J1_11" to="D_out" fromLane="1" toLane="3" dir="s" state="M"/>
    <connection from=":J1_13" to="B_out" fromLane="0" toLane="1" via=":J1_22_0" dir="r" state="m"/>
    <connection from=":J1_22" to="B_out" fromLane="0" toLane="1" dir="r" state="m"/>
    <connection from=":J1_13" to="B_out" fromLane="1" toLane="2" via=":J1_23_0" dir="r" state="m"/>
    <connection from=":J1_23" to="B_out" fromLane="0" toLane="2" dir="r" state="m"/>

    <connection from=":J0_w0" to="A_in" fromLane="0" toLane="0" dir="s" state="M"/>
    <connection from="A_out" to=":J0_w0" fromLane="0" toLane="0" dir="s" state="M"/>
    <connection from=":J1_c0" to=":J1_w0" fromLane="0" toLane="0" dir="s" state="M"/>
    <connection from=":J1_c1" to=":J1_w1" fromLane="0" toLane="0" dir="s" state="M"/>
    <connection from=":J1_c2" to=":J1_w2" fromLane="0" toLane="0" dir="s" state="M"/>
    <connection from=":J1_c3" to=":J1_w3" fromLane="0" toLane="0" dir="s" state="M"/>
    <connection from=":J1_w0" to=":J1_c3" fromLane="0" toLane="0" tl="J1" linkIndex="18" dir="s" state="M"/>
    <connection from=":J1_w0" to="A_out" fromLane="0" toLane="0" dir="s" state="M"/>
    <connection from="D_in" to=":J1_w0" fromLane="0" toLane="0" dir="s" state="M"/>
    <connection from=":J1_w1" to=":J1_c0" fromLane="0" toLane="0" tl="J1" linkIndex="15" dir="s" state="M"/>
    <connection from=":J1_w1" to="D_out" fromLane="0" toLane="0" dir="s" state="M"/>
    <connection from="C_in" to=":J1_w1" fromLane="0" toLane="0" dir="s" state="M"/>
    <connection from=":J1_w2" to=":J1_c1" fromLane="0" toLane="0" tl="J1" linkIndex="16" dir="s" state="M"/>
    <connection from=":J1_w2" to="C_out" fromLane="0" toLane="0" dir="s" state="M"/>
    <connection from="B_in" to=":J1_w2" fromLane="0" toLane="0" dir="s" state="M"/>
    <connection from=":J1_w3" to=":J1_c2" fromLane="0" toLane="0" tl="J1" linkIndex="17" dir="s" state="M"/>
    <connection from=":J1_w3" to="B_out" fromLane="0" toLane="0" dir="s" state="M"/>
    <connection from="A_in" to=":J1_w3" fromLane="0" toLane="0" dir="s" state="M"/>
    <connection from=":J2_w0" to="C_in" fromLane="0" toLane="0" dir="s" state="M"/>
    <connection from="C_out" to=":J2_w0" fromLane="0" toLane="0" dir="s" state="M"/>
    <connection from=":J3_w0" to="D_in" fromLane="0" toLane="0" dir="s" state="M"/>
    <connection from="D_out" to=":J3_w0" fromLane="0" toLane="0" dir="s" state="M"/>
    <connection from=":J4_w0" to="B_in" fromLane="0" toLane="0" dir="s" state="M"/>
    <connection from="B_out" to=":J4_w0" fromLane="0" toLane="0" dir="s" state="M"/>
</net>
