<?xml version="1.0" encoding="UTF-8"?>

<!-- generated on 2025-02-05 13:20:07 by Eclipse SUMO netedit Version 1.21.0
<neteditConfiguration xmlns:xsi="http://www.w3.org/2001/XMLSchema-instance" xsi:noNamespaceSchemaLocation="http://sumo.dlr.de/xsd/neteditConfiguration.xsd">

    <input>
        <sumocfg-file value="C:\Users\Ali Rockaya\Desktop\Random\7\7.sumocfg"/>
        <additional-files value="C:\Users\Ali Rockaya\Desktop\Random\7\7.add.xml"/>
        <route-files value="C:\Users\Ali Rockaya\Desktop\Random\7\7.rou.xml"/>
        <data-files value="C:\Users\Ali Rockaya\Desktop\Random\7\7.dat.xml"/>
        <sumo-net-file value="C:\Users\Ali Rockaya\Desktop\Random\7\Variant7_p34v1.net.xml"/>
    </input>

    <output>
        <output-file value="C:\Users\Ali Rockaya\Desktop\Random\7\Variant7_p34v1.net.xml"/>
    </output>

    <processing>
        <geometry.min-radius.fix.railways value="false"/>
        <geometry.max-grade.fix value="false"/>
        <offset.disable-normalization value="true"/>
        <lefthand value="0"/>
    </processing>

    <junctions>
        <no-internal-links value="false"/>
        <no-turnarounds value="true"/>
        <junctions.corner-detail value="5"/>
        <junctions.limit-turn-speed value="5.50"/>
        <rectangular-lane-cut value="0"/>
    </junctions>

    <pedestrian>
        <walkingareas value="0"/>
    </pedestrian>

</neteditConfiguration>
-->

<net version="1.20" junctionCornerDetail="5" limitTurnSpeed="5.50" xmlns:xsi="http://www.w3.org/2001/XMLSchema-instance" xsi:noNamespaceSchemaLocation="http://sumo.dlr.de/xsd/net_file.xsd">

    <location netOffset="0.00,0.00" convBoundary="-200.00,-200.00,200.00,200.00" origBoundary="-10000000000.00,-10000000000.00,10000000000.00,10000000000.00" projParameter="!"/>

    <edge id=":J0_w0" function="walkingarea">
        <lane id=":J0_w0_0" index="0" allow="pedestrian" speed="2.78" length="18.80" width="2.00" shape="-200.00,-10.40 -200.00,-12.40 -200.00,8.40 -200.00,6.40"/>
    </edge>
    <edge id=":J1_0" function="internal">
        <lane id=":J1_0_0" index="0" disallow="pedestrian" speed="6.51" length="9.03" shape="-1.60,10.40 -1.95,7.95 -3.00,6.20 -4.75,5.15 -7.20,4.80"/>
        <lane id=":J1_0_1" index="1" disallow="pedestrian" speed="7.33" length="11.73" shape="-1.60,10.40 -1.95,6.55 -3.00,3.80 -4.75,2.15 -7.20,1.60"/>
    </edge>
    <edge id=":J1_2" function="internal">
        <lane id=":J1_2_0" index="0" disallow="pedestrian" speed="13.89" length="24.80" shape="-1.60,10.40 -1.60,-14.40"/>
    </edge>
    <edge id=":J1_3" function="internal">
        <lane id=":J1_3_0" index="0" disallow="pedestrian" speed="9.86" length="22.10" shape="-1.60,10.40 -0.84,4.43 1.15,-1.84 3.97,-6.79 7.20,-8.80"/>
        <lane id=":J1_3_1" index="1" disallow="pedestrian" speed="9.24" length="19.29" shape="-1.60,10.40 -0.84,5.33 1.15,0.12 3.97,-3.96 7.20,-5.60"/>
    </edge>
    <edge id=":J1_5" function="internal">
        <lane id=":J1_5_0" index="0" disallow="pedestrian" speed="6.51" length="4.75" shape="7.20,4.80 4.75,5.15 3.00,6.20 2.88,6.40"/>
    </edge>
    <edge id=":J1_6" function="internal">
        <lane id=":J1_6_0" index="0" disallow="pedestrian" speed="13.89" length="14.40" shape="7.20,4.80 -7.20,4.80"/>
        <lane id=":J1_6_1" index="1" disallow="pedestrian" speed="13.89" length="14.40" shape="7.20,1.60 -7.20,1.60"/>
    </edge>
    <edge id=":J1_8" function="internal">
        <lane id=":J1_8_0" index="0" disallow="pedestrian" speed="8.84" length="4.86" shape="7.20,-1.60 3.35,-2.40 2.65,-3.01"/>
    </edge>
    <edge id=":J1_18" function="internal">
        <lane id=":J1_18_0" index="0" disallow="pedestrian" speed="6.51" length="4.28" shape="2.88,6.40 1.95,7.95 1.60,10.40"/>
    </edge>
    <edge id=":J1_19" function="internal">
        <lane id=":J1_19_0" index="0" disallow="pedestrian" speed="8.84" length="12.67" shape="2.65,-3.01 0.60,-4.80 -1.05,-8.80 -1.60,-14.40"/>
    </edge>
    <edge id=":J1_9" function="internal">
        <lane id=":J1_9_0" index="0" disallow="pedestrian" speed="6.51" length="9.03" shape="1.60,-14.40 1.95,-11.95 3.00,-10.20 4.75,-9.15 7.20,-8.80"/>
        <lane id=":J1_9_1" index="1" disallow="pedestrian" speed="7.33" length="11.73" shape="1.60,-14.40 1.95,-10.55 3.00,-7.80 4.75,-6.15 7.20,-5.60"/>
    </edge>
    <edge id=":J1_11" function="internal">
        <lane id=":J1_11_0" index="0" disallow="pedestrian" speed="13.89" length="24.80" shape="1.60,-14.40 1.60,10.40"/>
    </edge>
    <edge id=":J1_12" function="internal">
        <lane id=":J1_12_0" index="0" disallow="pedestrian" speed="9.86" length="22.10" shape="1.60,-14.40 0.84,-8.43 -1.15,-2.16 -3.97,2.79 -7.20,4.80"/>
        <lane id=":J1_12_1" index="1" disallow="pedestrian" speed="9.24" length="19.29" shape="1.60,-14.40 0.84,-9.33 -1.15,-4.12 -3.97,-0.04 -7.20,1.60"/>
    </edge>
    <edge id=":J1_14" function="internal">
        <lane id=":J1_14_0" index="0" disallow="pedestrian" speed="6.51" length="4.75" shape="-7.20,-8.80 -4.75,-9.15 -3.00,-10.20 -2.88,-10.40"/>
    </edge>
    <edge id=":J1_15" function="internal">
        <lane id=":J1_15_0" index="0" disallow="pedestrian" speed="13.89" length="14.40" shape="-7.20,-8.80 7.20,-8.80"/>
        <lane id=":J1_15_1" index="1" disallow="pedestrian" speed="13.89" length="14.40" shape="-7.20,-5.60 7.20,-5.60"/>
    </edge>
    <edge id=":J1_17" function="internal">
        <lane id=":J1_17_0" index="0" disallow="pedestrian" speed="9.48" length="8.52" shape="-7.20,-5.60 -3.35,-4.60 -0.60,-1.60 -0.45,-1.15"/>
    </edge>
    <edge id=":J1_20" function="internal">
        <lane id=":J1_20_0" index="0" disallow="pedestrian" speed="6.51" length="4.28" shape="-2.88,-10.40 -1.95,-11.95 -1.60,-14.40"/>
    </edge>
    <edge id=":J1_21" function="internal">
        <lane id=":J1_21_0" index="0" disallow="pedestrian" speed="9.48" length="11.82" shape="-0.45,-1.15 1.05,3.40 1.60,10.40"/>
    </edge>
    <edge id=":J1_c0" function="crossing" crossingEdges="D_out D_in">
        <lane id=":J1_c0_0" index="0" allow="pedestrian" speed="2.78" length="6.40" width="4.00" shape="3.20,8.40 -3.20,8.40" outlineShape="3.20,10.40 -3.20,10.40 -3.31,9.18 -3.64,8.18 -4.20,7.40 -4.98,6.84 -5.31,6.73 -3.20,6.40 3.20,6.40 5.31,6.73 4.98,6.84 4.20,7.40 3.64,8.18 3.31,9.18"/>
    </edge>
    <edge id=":J1_c1" function="crossing" crossingEdges="C_out -E1.158">
        <lane id=":J1_c1_0" index="0" allow="pedestrian" speed="2.78" length="16.80" width="4.00" shape="5.20,-10.40 5.20,6.40" outlineShape="7.20,-10.50 7.20,6.50 3.20,10.40 5.20,10.40 7.20,8.40 7.20,6.40 3.20,10.40 3.20,-14.40 3.31,-13.18 3.64,-12.18 4.20,-11.40 4.98,-10.84 5.98,-10.51"/>
    </edge>
    <edge id=":J1_c2" function="crossing" crossingEdges="B_out B_in">
        <lane id=":J1_c2_0" index="0" allow="pedestrian" speed="2.78" length="6.40" width="4.00" shape="-3.20,-12.40 3.20,-12.40" outlineShape="-3.20,-14.40 3.20,-14.40 7.20,-10.40 7.20,-12.40 5.20,-14.40 3.20,-14.40 7.20,-10.40 -7.20,-10.40 -5.98,-10.51 -4.98,-10.84 -4.20,-11.40 -3.64,-12.18 -3.31,-13.18"/>
    </edge>
    <edge id=":J1_c3" function="crossing" crossingEdges="A_out E0.151">
        <lane id=":J1_c3_0" index="0" allow="pedestrian" speed="2.78" length="16.80" width="4.00" shape="-5.20,6.40 -5.20,-10.40" outlineShape="-7.20,6.50 -7.20,-10.50 -3.20,-14.40 -5.20,-14.40 -7.20,-12.40 -7.20,-10.40 -3.20,-14.40 -3.20,10.40 -3.31,9.18 -3.64,8.18 -4.20,7.40 -4.98,6.84 -5.98,6.51"/>
    </edge>
    <edge id=":J1_w0" function="walkingarea">
        <lane id=":J1_w0_0" index="0" allow="pedestrian" speed="2.78" length="3.30" width="4.00" shape="-7.20,6.40 -7.20,8.40 -5.20,10.40 -3.20,10.40 -3.31,9.18 -3.64,8.18 -4.20,7.40 -4.98,6.84 -5.98,6.51"/>
    </edge>
    <edge id=":J1_w1" function="walkingarea">
        <lane id=":J1_w1_0" index="0" allow="pedestrian" speed="2.78" length="3.30" width="4.00" shape="3.20,10.40 5.20,10.40 7.20,8.40 7.20,6.40 5.98,6.51 4.98,6.84 4.20,7.40 3.64,8.18 3.31,9.18"/>
    </edge>
    <edge id=":J1_w2" function="walkingarea">
        <lane id=":J1_w2_0" index="0" allow="pedestrian" speed="2.78" length="3.30" width="4.00" shape="7.20,-10.40 7.20,-12.40 5.20,-14.40 3.20,-14.40 3.31,-13.18 3.64,-12.18 4.20,-11.40 4.98,-10.84 5.98,-10.51"/>
    </edge>
    <edge id=":J1_w3" function="walkingarea">
        <lane id=":J1_w3_0" index="0" allow="pedestrian" speed="2.78" length="3.30" width="4.00" shape="-3.20,-14.40 -5.20,-14.40 -7.20,-12.40 -7.20,-10.40 -5.98,-10.51 -4.98,-10.84 -4.20,-11.40 -3.64,-12.18 -3.31,-13.18"/>
    </edge>
    <edge id=":J2_w0" function="walkingarea">
        <lane id=":J2_w0_0" index="0" allow="pedestrian" speed="2.78" length="18.80" width="2.00" shape="200.00,6.40 200.00,8.40 200.00,-12.40 200.00,-10.40"/>
    </edge>
    <edge id=":J3_w0" function="walkingarea">
        <lane id=":J3_w0_0" index="0" allow="pedestrian" speed="2.78" length="8.40" width="2.00" shape="-3.20,200.00 -5.20,200.00 5.20,200.00 3.20,200.00"/>
    </edge>
    <edge id=":J4_w0" function="walkingarea">
        <lane id=":J4_w0_0" index="0" allow="pedestrian" speed="2.78" length="8.40" width="2.00" shape="3.20,-200.00 5.20,-200.00 -5.20,-200.00 -3.20,-200.00"/>
    </edge>
    <edge id=":J5_0" function="internal">
        <lane id=":J5_0_0" index="0" disallow="pedestrian" speed="13.89" length="0.10" shape="-49.90,-8.80 -49.90,-8.80"/>
        <lane id=":J5_0_1" index="1" disallow="pedestrian" speed="13.89" length="0.10" shape="-49.90,-5.60 -49.90,-5.60"/>
    </edge>
    <edge id=":J5_w0" function="walkingarea">
        <lane id=":J5_w0_0" index="0" allow="pedestrian" speed="2.78" length="0.10" width="2.00" shape="-49.90,-10.40 -49.90,-12.40 -49.90,-10.40"/>
    </edge>
    <edge id=":J6_0" function="internal">
        <lane id=":J6_0_0" index="0" disallow="pedestrian" speed="13.89" length="8.40" shape="54.00,4.80 46.00,4.80"/>
        <lane id=":J6_0_1" index="1" disallow="pedestrian" speed="13.89" length="8.40" shape="54.00,4.80 51.54,4.30 50.00,3.20 48.46,2.10 46.00,1.60"/>
        <lane id=":J6_0_2" index="2" disallow="pedestrian" speed="13.89" length="8.40" shape="54.00,1.60 46.00,1.60"/>
        <lane id=":J6_0_3" index="3" disallow="pedestrian" speed="13.89" length="8.40" shape="54.00,1.60 51.54,1.10 50.00,-0.00 48.46,-1.10 46.00,-1.60"/>
    </edge>
    <edge id=":J6_w0" function="walkingarea">
        <lane id=":J6_w0_0" index="0" allow="pedestrian" speed="2.78" length="8.00" width="2.00" shape="46.00,6.40 46.00,8.40 54.00,8.40 54.00,6.40"/>
    </edge>

    <edge id="-E1.158" from="J6" to="J1" priority="5" shape="50.00,-4.00 0.00,-4.00">
        <lane id="-E1.158_0" index="0" allow="pedestrian" speed="13.89" length="38.80" width="2.00" shape="46.00,7.40 7.20,7.40"/>
        <lane id="-E1.158_1" index="1" disallow="pedestrian" speed="13.89" length="38.80" shape="46.00,4.80 7.20,4.80"/>
        <lane id="-E1.158_2" index="2" disallow="pedestrian" speed="13.89" length="38.80" shape="46.00,1.60 7.20,1.60"/>
        <lane id="-E1.158_3" index="3" disallow="pedestrian" speed="13.89" length="38.80" shape="46.00,-1.60 7.20,-1.60"/>
        <lane id="-E1.158_4" index="4" disallow="all" speed="13.89" length="38.80" width="0.80" shape="46.00,-3.60 7.20,-3.60"/>
    </edge>
    <edge id="A_in" from="J0" to="J5" priority="-1" shape="-200.00,0.00 -50.00,0.00">
        <lane id="A_in_0" index="0" allow="pedestrian" speed="13.89" length="150.08" width="2.00" shape="-200.00,-11.40 -49.90,-11.40"/>
        <lane id="A_in_1" index="1" disallow="pedestrian" speed="13.89" length="150.08" shape="-200.00,-8.80 -49.90,-8.80"/>
        <lane id="A_in_2" index="2" disallow="pedestrian" speed="13.89" length="150.08" shape="-200.00,-5.60 -49.90,-5.60"/>
        <lane id="A_in_3" index="3" disallow="all" speed="13.89" length="150.08" width="4.00" shape="-200.00,-2.00 -50.00,-2.00"/>
    </edge>
    <edge id="A_out" from="J1" to="J0" priority="5" shape="0.00,0.00 -47.25,0.00 -200.00,0.00">
        <lane id="A_out_0" index="0" allow="pedestrian" speed="13.89" length="192.80" width="2.00" shape="-7.20,7.40 -47.25,7.40 -200.00,7.40"/>
        <lane id="A_out_1" index="1" disallow="pedestrian" speed="13.89" length="192.80" shape="-7.20,4.80 -47.25,4.80 -200.00,4.80"/>
        <lane id="A_out_2" index="2" disallow="pedestrian" speed="13.89" length="192.80" shape="-7.20,1.60 -47.25,1.60 -200.00,1.60"/>
    </edge>
    <edge id="B_in" from="J4" to="J1" priority="1">
        <lane id="B_in_0" index="0" allow="pedestrian" speed="13.89" length="185.60" width="2.00" shape="4.20,-200.00 4.20,-14.40"/>
        <lane id="B_in_1" index="1" disallow="pedestrian" speed="13.89" length="185.60" shape="1.60,-200.00 1.60,-14.40"/>
    </edge>
    <edge id="B_out" from="J1" to="J4" priority="1">
        <lane id="B_out_0" index="0" allow="pedestrian" speed="13.89" length="185.60" width="2.00" shape="-4.20,-14.40 -4.20,-200.00"/>
        <lane id="B_out_1" index="1" disallow="pedestrian" speed="13.89" length="185.60" shape="-1.60,-14.40 -1.60,-200.00"/>
    </edge>
    <edge id="C_in" from="J2" to="J6" priority="-1" shape="200.00,-4.00 50.00,-4.00">
        <lane id="C_in_0" index="0" allow="pedestrian" speed="13.89" length="146.00" width="2.00" shape="200.00,7.40 54.00,7.40"/>
        <lane id="C_in_1" index="1" disallow="pedestrian" speed="13.89" length="146.00" shape="200.00,4.80 54.00,4.80"/>
        <lane id="C_in_2" index="2" disallow="pedestrian" speed="13.89" length="146.00" shape="200.00,1.60 54.00,1.60"/>
        <lane id="C_in_3" index="3" disallow="all" speed="13.89" length="146.00" width="4.00" shape="200.00,-2.00 54.00,-2.00"/>
    </edge>
    <edge id="C_out" from="J1" to="J2" priority="5" shape="0.00,-4.00 200.00,-4.00">
        <lane id="C_out_0" index="0" allow="pedestrian" speed="13.89" length="192.80" width="2.00" shape="7.20,-11.40 200.00,-11.40"/>
        <lane id="C_out_1" index="1" disallow="pedestrian" speed="13.89" length="192.80" shape="7.20,-8.80 200.00,-8.80"/>
        <lane id="C_out_2" index="2" disallow="pedestrian" speed="13.89" length="192.80" shape="7.20,-5.60 200.00,-5.60"/>
    </edge>
    <edge id="D_in" from="J3" to="J1" priority="1">
        <lane id="D_in_0" index="0" allow="pedestrian" speed="13.89" length="189.60" width="2.00" shape="-4.20,200.00 -4.20,10.40"/>
        <lane id="D_in_1" index="1" disallow="pedestrian" speed="13.89" length="189.60" shape="-1.60,200.00 -1.60,10.40"/>
    </edge>
    <edge id="D_out" from="J1" to="J3" priority="1">
        <lane id="D_out_0" index="0" allow="pedestrian" speed="13.89" length="189.60" width="2.00" shape="4.20,10.40 4.20,200.00"/>
        <lane id="D_out_1" index="1" disallow="pedestrian" speed="13.89" length="189.60" shape="1.60,10.40 1.60,200.00"/>
    </edge>
    <edge id="E0.151" from="J5" to="J1" priority="5" shape="-50.00,0.00 0.00,0.00">
        <lane id="E0.151_0" index="0" allow="pedestrian" speed="13.89" length="42.72" width="2.00" shape="-49.90,-11.40 -7.20,-11.40"/>
        <lane id="E0.151_1" index="1" disallow="pedestrian" speed="13.89" length="42.72" shape="-49.90,-8.80 -7.20,-8.80"/>
        <lane id="E0.151_2" index="2" disallow="pedestrian" speed="13.89" length="42.72" shape="-49.90,-5.60 -7.20,-5.60"/>
        <lane id="E0.151_3" index="3" disallow="all" speed="13.89" length="42.72" width="4.00" shape="-50.00,-2.00 -7.20,-2.00"/>
    </edge>

    <junction id="J0" type="dead_end" x="-200.00" y="0.00" incLanes="A_out_0 A_out_1 A_out_2" intLanes="" shape="-200.00,-4.00 -200.00,8.40 -200.00,0.00"/>
    <junction id="J1" type="priority" x="0.00" y="0.00" incLanes="D_in_0 D_in_1 -E1.158_0 -E1.158_1 -E1.158_2 -E1.158_3 -E1.158_4 B_in_0 B_in_1 E0.151_0 E0.151_1 E0.151_2 E0.151_3 :J1_w1_0 :J1_w2_0 :J1_w3_0 :J1_w0_0" intLanes=":J1_0_0 :J1_0_1 :J1_2_0 :J1_3_0 :J1_3_1 :J1_18_0 :J1_6_0 :J1_6_1 :J1_19_0 :J1_9_0 :J1_9_1 :J1_11_0 :J1_12_0 :J1_12_1 :J1_20_0 :J1_15_0 :J1_15_1 :J1_21_0 :J1_c0_0 :J1_c1_0 :J1_c2_0 :J1_c3_0" shape="-5.20,10.40 5.20,10.40 5.42,9.29 5.70,8.90 6.09,8.62 6.59,8.46 7.20,8.40 7.20,-12.40 6.09,-12.62 5.70,-12.90 5.42,-13.29 5.26,-13.79 5.20,-14.40 -5.20,-14.40 -5.42,-13.29 -5.70,-12.90 -6.09,-12.62 -6.59,-12.46 -7.20,-12.40 -7.20,8.40 -6.09,8.62 -5.70,8.90 -5.42,9.29 -5.26,9.79">
        <request index="0"  response="1000000000000011000000" foes="1001000011000011000000" cont="0"/>
        <request index="1"  response="1000000000000011000000" foes="1001000011000011000000" cont="0"/>
        <request index="2"  response="0000111100000111000000" foes="0101111111000111000000" cont="0"/>
        <request index="3"  response="0010111000111111000000" foes="0011111001111111000000" cont="0"/>
        <request index="4"  response="0010111000111111000000" foes="0011111000111111000000" cont="0"/>
        <request index="5"  response="0001000000000000000000" foes="0011100000100000000000" cont="1"/>
        <request index="6"  response="0000000000000000000000" foes="1010100011100000011111" cont="0"/>
        <request index="7"  response="0000000000000000000000" foes="1010100011100000011111" cont="0"/>
        <request index="8"  response="0100011100000000000000" foes="0110011111100000011100" cont="1"/>
        <request index="9"  response="0010011000000000000000" foes="0110011000000000011000" cont="0"/>
        <request index="10" response="0010011000000000000000" foes="0110011000000000011000" cont="0"/>
        <request index="11" response="0000111000000111100000" foes="0101111000000111111000" cont="0"/>
        <request index="12" response="1000111000000111001111" foes="1100111000000111001111" cont="0"/>
        <request index="13" response="1000111000000111000111" foes="1100111000000111000111" cont="0"/>
        <request index="14" response="0100000000000000000000" foes="1100000000000100000100" cont="1"/>
        <request index="15" response="0000000000000000000000" foes="1010000011111100011100" cont="0"/>
        <request index="16" response="0000000000000000000000" foes="1010000011111100011100" cont="0"/>
        <request index="17" response="0001000000000011100000" foes="1001000011100011111100" cont="1"/>
        <request index="18" response="0000000000100000011111" foes="0000100000100000111111" cont="0"/>
        <request index="19" response="0000011000000111100000" foes="0000011000011111111000" cont="0"/>
        <request index="20" response="0000000011111000000100" foes="0000000111111100000100" cont="0"/>
        <request index="21" response="0000111100000011000000" foes="0000111111000011000011" cont="0"/>
    </junction>
    <junction id="J2" type="dead_end" x="200.00" y="0.00" incLanes="C_out_0 C_out_1 C_out_2" intLanes="" shape="200.00,-0.00 200.00,-12.40 200.00,-4.00"/>
    <junction id="J3" type="dead_end" x="0.00" y="200.00" incLanes="D_out_0 D_out_1" intLanes="" shape="0.00,200.00 5.20,200.00 0.00,200.00"/>
    <junction id="J4" type="dead_end" x="0.00" y="-200.00" incLanes="B_out_0 B_out_1" intLanes="" shape="0.00,-200.00 -5.20,-200.00 0.00,-200.00"/>
    <junction id="J5" type="priority" x="-49.90" y="0.00" incLanes="A_in_0 A_in_1 A_in_2 A_in_3" intLanes=":J5_0_0 :J5_0_1" shape="-49.90,-4.00 -49.90,-15.60 -49.90,-4.00" customShape="1">
        <request index="0" response="00" foes="00" cont="0"/>
        <request index="1" response="00" foes="00" cont="0"/>
    </junction>
    <junction id="J6" type="priority" x="50.00" y="0.00" incLanes="C_in_0 C_in_1 C_in_2 C_in_3" intLanes=":J6_0_0 :J6_0_1 :J6_0_2 :J6_0_3" shape="54.00,8.40 54.00,-0.00 50.97,-0.83 49.03,-2.37 47.79,-2.96 46.00,-3.20 46.00,8.40">
        <request index="0" response="0000" foes="0000" cont="0"/>
        <request index="1" response="0100" foes="0100" cont="0"/>
        <request index="2" response="0000" foes="0010" cont="0"/>
        <request index="3" response="0000" foes="0000" cont="0"/>
    </junction>

    <junction id=":J1_18_0" type="internal" x="2.88" y="6.40" incLanes=":J1_5_0" intLanes=":J1_11_0 :J1_17_0 :J1_c0_0 :J1_c1_0"/>
    <junction id=":J1_19_0" type="internal" x="2.65" y="-3.01" incLanes=":J1_8_0 E0.151_1 E0.151_2" intLanes=":J1_2_0 :J1_3_0 :J1_3_1 :J1_11_0 :J1_12_0 :J1_12_1 :J1_14_0 :J1_15_0 :J1_15_1 :J1_c1_0 :J1_c2_0"/>
    <junction id=":J1_20_0" type="internal" x="-2.88" y="-10.40" incLanes=":J1_14_0" intLanes=":J1_2_0 :J1_8_0 :J1_c2_0 :J1_c3_0"/>
    <junction id=":J1_21_0" type="internal" x="-0.45" y="-1.15" incLanes=":J1_17_0 -E1.158_1 -E1.158_2" intLanes=":J1_2_0 :J1_3_0 :J1_3_1 :J1_5_0 :J1_6_0 :J1_6_1 :J1_11_0 :J1_12_0 :J1_12_1 :J1_c0_0 :J1_c3_0"/>

    <connection from="-E1.158" to="D_out" fromLane="1" toLane="1" via=":J1_5_0" dir="r" state="m"/>
    <connection from="-E1.158" to="A_out" fromLane="1" toLane="1" via=":J1_6_0" dir="s" state="M"/>
    <connection from="-E1.158" to="A_out" fromLane="2" toLane="2" via=":J1_6_1" dir="s" state="M"/>
    <connection from="-E1.158" to="B_out" fromLane="3" toLane="1" via=":J1_8_0" dir="l" state="m"/>
    <connection from="A_in" to="E0.151" fromLane="1" toLane="1" via=":J5_0_0" dir="s" state="M"/>
    <connection from="A_in" to="E0.151" fromLane="2" toLane="2" via=":J5_0_1" dir="s" state="M"/>
    <connection from="B_in" to="C_out" fromLane="1" toLane="1" via=":J1_9_0" dir="r" state="m"/>
    <connection from="B_in" to="C_out" fromLane="1" toLane="2" via=":J1_9_1" dir="r" state="m"/>
    <connection from="B_in" to="D_out" fromLane="1" toLane="1" via=":J1_11_0" dir="s" state="m"/>
    <connection from="B_in" to="A_out" fromLane="1" toLane="1" via=":J1_12_0" dir="l" state="m"/>
    <connection from="B_in" to="A_out" fromLane="1" toLane="2" via=":J1_12_1" dir="l" state="m"/>
    <connection from="C_in" to="-E1.158" fromLane="1" toLane="1" via=":J6_0_0" dir="s" state="M"/>
    <connection from="C_in" to="-E1.158" fromLane="1" toLane="2" via=":J6_0_1" dir="s" state="m"/>
    <connection from="C_in" to="-E1.158" fromLane="2" toLane="2" via=":J6_0_2" dir="s" state="M"/>
    <connection from="C_in" to="-E1.158" fromLane="2" toLane="3" via=":J6_0_3" dir="s" state="M"/>
    <connection from="D_in" to="A_out" fromLane="1" toLane="1" via=":J1_0_0" dir="r" state="m"/>
    <connection from="D_in" to="A_out" fromLane="1" toLane="2" via=":J1_0_1" dir="r" state="m"/>
    <connection from="D_in" to="B_out" fromLane="1" toLane="1" via=":J1_2_0" dir="s" state="m"/>
    <connection from="D_in" to="C_out" fromLane="1" toLane="1" via=":J1_3_0" dir="l" state="m"/>
    <connection from="D_in" to="C_out" fromLane="1" toLane="2" via=":J1_3_1" dir="l" state="m"/>
    <connection from="E0.151" to="B_out" fromLane="1" toLane="1" via=":J1_14_0" dir="r" state="m"/>
    <connection from="E0.151" to="C_out" fromLane="1" toLane="1" via=":J1_15_0" dir="s" state="M"/>
    <connection from="E0.151" to="C_out" fromLane="2" toLane="2" via=":J1_15_1" dir="s" state="M"/>
    <connection from="E0.151" to="D_out" fromLane="2" toLane="1" via=":J1_17_0" dir="l" state="m"/>

    <connection from=":J1_0" to="A_out" fromLane="0" toLane="1" dir="r" state="M"/>
    <connection from=":J1_0" to="A_out" fromLane="1" toLane="2" dir="r" state="M"/>
    <connection from=":J1_2" to="B_out" fromLane="0" toLane="1" dir="s" state="M"/>
    <connection from=":J1_3" to="C_out" fromLane="0" toLane="1" dir="l" state="M"/>
    <connection from=":J1_3" to="C_out" fromLane="1" toLane="2" dir="l" state="M"/>
    <connection from=":J1_5" to="D_out" fromLane="0" toLane="1" via=":J1_18_0" dir="r" state="m"/>
    <connection from=":J1_18" to="D_out" fromLane="0" toLane="1" dir="r" state="m"/>
    <connection from=":J1_6" to="A_out" fromLane="0" toLane="1" dir="s" state="M"/>
    <connection from=":J1_6" to="A_out" fromLane="1" toLane="2" dir="s" state="M"/>
    <connection from=":J1_8" to="B_out" fromLane="0" toLane="1" via=":J1_19_0" dir="l" state="m"/>
    <connection from=":J1_19" to="B_out" fromLane="0" toLane="1" dir="l" state="m"/>
    <connection from=":J1_9" to="C_out" fromLane="0" toLane="1" dir="r" state="M"/>
    <connection from=":J1_9" to="C_out" fromLane="1" toLane="2" dir="r" state="M"/>
    <connection from=":J1_11" to="D_out" fromLane="0" toLane="1" dir="s" state="M"/>
    <connection from=":J1_12" to="A_out" fromLane="0" toLane="1" dir="l" state="M"/>
    <connection from=":J1_12" to="A_out" fromLane="1" toLane="2" dir="l" state="M"/>
    <connection from=":J1_14" to="B_out" fromLane="0" toLane="1" via=":J1_20_0" dir="r" state="m"/>
    <connection from=":J1_20" to="B_out" fromLane="0" toLane="1" dir="r" state="m"/>
    <connection from=":J1_15" to="C_out" fromLane="0" toLane="1" dir="s" state="M"/>
    <connection from=":J1_15" to="C_out" fromLane="1" toLane="2" dir="s" state="M"/>
    <connection from=":J1_17" to="D_out" fromLane="0" toLane="1" via=":J1_21_0" dir="l" state="m"/>
    <connection from=":J1_21" to="D_out" fromLane="0" toLane="1" dir="l" state="m"/>
    <connection from=":J5_0" to="E0.151" fromLane="0" toLane="1" dir="s" state="M"/>
    <connection from=":J5_0" to="E0.151" fromLane="1" toLane="2" dir="s" state="M"/>
    <connection from=":J6_0" to="-E1.158" fromLane="0" toLane="1" dir="s" state="M"/>
    <connection from=":J6_0" to="-E1.158" fromLane="1" toLane="2" dir="s" state="M"/>
    <connection from=":J6_0" to="-E1.158" fromLane="2" toLane="2" dir="s" state="M"/>
    <connection from=":J6_0" to="-E1.158" fromLane="3" toLane="3" dir="s" state="M"/>

    <connection from=":J0_w0" to="A_in" fromLane="0" toLane="0" dir="s" state="M"/>
    <connection from="A_out" to=":J0_w0" fromLane="0" toLane="0" dir="s" state="M"/>
    <connection from=":J1_c0" to=":J1_w0" fromLane="0" toLane="0" dir="s" state="M"/>
    <connection from=":J1_c1" to=":J1_w1" fromLane="0" toLane="0" dir="s" state="M"/>
    <connection from=":J1_c2" to=":J1_w2" fromLane="0" toLane="0" dir="s" state="M"/>
    <connection from=":J1_c3" to=":J1_w3" fromLane="0" toLane="0" dir="s" state="M"/>
    <connection from=":J1_w0" to=":J1_c3" fromLane="0" toLane="0" dir="s" state="m"/>
    <connection from=":J1_w0" to="A_out" fromLane="0" toLane="0" dir="s" state="M"/>
    <connection from="D_in" to=":J1_w0" fromLane="0" toLane="0" dir="s" state="M"/>
    <connection from=":J1_w1" to=":J1_c0" fromLane="0" toLane="0" dir="s" state="m"/>
    <connection from=":J1_w1" to="D_out" fromLane="0" toLane="0" dir="s" state="M"/>
    <connection from="-E1.158" to=":J1_w1" fromLane="0" toLane="0" dir="s" state="M"/>
    <connection from=":J1_w2" to=":J1_c1" fromLane="0" toLane="0" dir="s" state="m"/>
    <connection from=":J1_w2" to="C_out" fromLane="0" toLane="0" dir="s" state="M"/>
    <connection from="B_in" to=":J1_w2" fromLane="0" toLane="0" dir="s" state="M"/>
    <connection from=":J1_w3" to=":J1_c2" fromLane="0" toLane="0" dir="s" state="m"/>
    <connection from=":J1_w3" to="B_out" fromLane="0" toLane="0" dir="s" state="M"/>
    <connection from="E0.151" to=":J1_w3" fromLane="0" toLane="0" dir="s" state="M"/>
    <connection from=":J2_w0" to="C_in" fromLane="0" toLane="0" dir="s" state="M"/>
    <connection from="C_out" to=":J2_w0" fromLane="0" toLane="0" dir="s" state="M"/>
    <connection from=":J3_w0" to="D_in" fromLane="0" toLane="0" dir="s" state="M"/>
    <connection from="D_out" to=":J3_w0" fromLane="0" toLane="0" dir="s" state="M"/>
    <connection from=":J4_w0" to="B_in" fromLane="0" toLane="0" dir="s" state="M"/>
    <connection from="B_out" to=":J4_w0" fromLane="0" toLane="0" dir="s" state="M"/>
    <connection from=":J5_w0" to="E0.151" fromLane="0" toLane="0" dir="s" state="M"/>
    <connection from="A_in" to=":J5_w0" fromLane="0" toLane="0" dir="s" state="M"/>
    <connection from=":J6_w0" to="-E1.158" fromLane="0" toLane="0" dir="s" state="M"/>
    <connection from="C_in" to=":J6_w0" fromLane="0" toLane="0" dir="s" state="M"/>
</net>
