<?xml version="1.0" encoding="UTF-8"?>

<!-- generated on 2025-02-05 12:02:01 by Eclipse SUMO netedit Version 1.21.0
<neteditConfiguration xmlns:xsi="http://www.w3.org/2001/XMLSchema-instance" xsi:noNamespaceSchemaLocation="http://sumo.dlr.de/xsd/neteditConfiguration.xsd">

    <input>
        <sumocfg-file value="C:\Users\Ali Rockaya\Desktop\Random\3\03.sumocfg"/>
        <additional-files value="C:\Users\Ali Rockaya\Desktop\Random\3\03.add.xml"/>
        <route-files value="C:\Users\Ali Rockaya\Desktop\Random\3\03.rou.xml"/>
        <data-files value="C:\Users\Ali Rockaya\Desktop\Random\3\03.dat.xml"/>
        <sumo-net-file value="C:\Users\Ali Rockaya\Desktop\Random\3\Variant03_p25v2.net.xml"/>
    </input>

    <output>
        <output-file value="C:\Users\Ali Rockaya\Desktop\Random\3\Variant03_p25v2.net.xml"/>
    </output>

    <processing>
        <geometry.min-radius.fix.railways value="false"/>
        <geometry.max-grade.fix value="false"/>
        <offset.disable-normalization value="true"/>
        <lefthand value="0"/>
    </processing>

    <junctions>
        <no-internal-links value="false"/>
        <no-turnarounds value="true"/>
        <junctions.corner-detail value="5"/>
        <junctions.limit-turn-speed value="5.50"/>
        <rectangular-lane-cut value="0"/>
    </junctions>

    <pedestrian>
        <walkingareas value="0"/>
    </pedestrian>

</neteditConfiguration>
-->

<net version="1.20" junctionCornerDetail="5" limitTurnSpeed="5.50" xmlns:xsi="http://www.w3.org/2001/XMLSchema-instance" xsi:noNamespaceSchemaLocation="http://sumo.dlr.de/xsd/net_file.xsd">

    <location netOffset="0.00,0.00" convBoundary="-200.00,-200.00,200.00,200.00" origBoundary="-10000000000.00,-10000000000.00,10000000000.00,10000000000.00" projParameter="!"/>

    <edge id=":J0_w0" function="walkingarea">
        <lane id=":J0_w0_0" index="0" allow="pedestrian" speed="2.78" length="21.50" width="2.00" shape="-200.00,-11.90 -200.00,-13.90 -200.00,9.60 -200.00,7.60"/>
    </edge>
    <edge id=":J1_0" function="internal">
        <lane id=":J1_0_0" index="0" allow="bicycle" speed="6.65" length="4.39" width="1.00" shape="-6.40,14.96 -6.69,11.52 -7.00,10.63"/>
    </edge>
    <edge id=":J1_1" function="internal">
        <lane id=":J1_1_0" index="0" allow="bicycle" speed="13.89" length="30.78" width="1.00" shape="-6.40,14.96 -6.40,-15.82"/>
    </edge>
    <edge id=":J1_2" function="internal">
        <lane id=":J1_2_0" index="0" disallow="pedestrian bicycle" speed="7.83" length="2.14" shape="-4.30,14.97 -4.50,12.84"/>
    </edge>
    <edge id=":J1_3" function="internal">
        <lane id=":J1_3_0" index="0" disallow="pedestrian bicycle" speed="13.89" length="30.80" shape="-4.30,14.97 -4.30,-15.82"/>
        <lane id=":J1_3_1" index="1" disallow="pedestrian bicycle" speed="13.89" length="30.80" shape="-1.10,14.99 -1.10,-15.82"/>
    </edge>
    <edge id=":J1_5" function="internal">
        <lane id=":J1_5_0" index="0" disallow="pedestrian bicycle" speed="11.08" length="11.57" shape="-1.10,14.99 -0.26,5.76 0.57,3.61"/>
    </edge>
    <edge id=":J1_25" function="internal">
        <lane id=":J1_25_0" index="0" allow="bicycle" speed="6.65" length="5.79" width="1.00" shape="-7.00,10.63 -7.55,9.06 -8.99,7.59 -11.00,7.10"/>
    </edge>
    <edge id=":J1_26" function="internal">
        <lane id=":J1_26_0" index="0" disallow="pedestrian bicycle" speed="7.83" length="11.41" shape="-4.50,12.84 -4.72,10.61 -5.98,7.49 -8.07,5.62 -11.00,5.00"/>
    </edge>
    <edge id=":J1_27" function="internal">
        <lane id=":J1_27_0" index="0" disallow="pedestrian bicycle" speed="11.08" length="16.60" shape="0.57,3.61 2.28,-0.83 6.50,-4.78 12.41,-6.10"/>
    </edge>
    <edge id=":J1_6" function="internal">
        <lane id=":J1_6_0" index="0" disallow="pedestrian bicycle tram rail_urban rail rail_electric rail_fast ship container cable_car subway aircraft drone" speed="6.70" length="5.18" shape="12.41,9.35 9.75,9.70 7.84,10.77 7.67,11.03"/>
        <lane id=":J1_6_1" index="1" allow="bicycle" speed="6.54" length="5.79" width="1.00" shape="12.41,7.10 10.67,7.60 9.42,9.08 8.83,11.04"/>
    </edge>
    <edge id=":J1_8" function="internal">
        <lane id=":J1_8_0" index="0" allow="bicycle" speed="13.89" length="23.41" width="1.00" shape="12.41,7.10 -11.00,7.10"/>
        <lane id=":J1_8_1" index="1" disallow="pedestrian bicycle" speed="13.89" length="23.41" shape="12.41,5.00 -11.00,5.00"/>
        <lane id=":J1_8_2" index="2" disallow="pedestrian bicycle" speed="13.89" length="23.41" shape="12.41,1.80 -11.00,1.80"/>
    </edge>
    <edge id=":J1_11" function="internal">
        <lane id=":J1_11_0" index="0" allow="bicycle" speed="10.86" length="14.38" width="1.00" shape="12.41,-0.30 4.18,-1.27 -1.28,-3.98"/>
        <lane id=":J1_11_1" index="1" disallow="pedestrian bicycle" speed="9.78" length="6.56" shape="12.41,-2.40 6.50,-3.24 5.99,-3.54"/>
    </edge>
    <edge id=":J1_28" function="internal">
        <lane id=":J1_28_0" index="0" disallow="pedestrian bicycle tram rail_urban rail rail_electric rail_fast ship container cable_car subway aircraft drone" speed="6.70" length="4.31" shape="7.67,11.03 6.69,12.54 6.30,15.03"/>
    </edge>
    <edge id=":J1_29" function="internal">
        <lane id=":J1_29_0" index="0" allow="bicycle" speed="6.54" length="4.03" width="1.00" shape="8.83,11.04 8.67,11.56 8.40,15.04"/>
    </edge>
    <edge id=":J1_30" function="internal">
        <lane id=":J1_30_0" index="0" allow="bicycle" speed="10.86" length="13.36" width="1.00" shape="-1.28,-3.98 -1.70,-4.18 -5.22,-9.03 -6.40,-15.82"/>
    </edge>
    <edge id=":J1_31" function="internal">
        <lane id=":J1_31_0" index="0" disallow="pedestrian bicycle" speed="9.78" length="15.16" shape="5.99,-3.54 2.28,-5.76 -0.26,-9.95 -1.10,-15.82"/>
    </edge>
    <edge id=":J1_13" function="internal">
        <lane id=":J1_13_0" index="0" allow="bicycle" speed="6.14" length="8.66" width="1.00" shape="8.40,-18.00 8.65,-15.11 9.40,-13.05 10.66,-11.81 12.41,-11.40"/>
    </edge>
    <edge id=":J1_14" function="internal">
        <lane id=":J1_14_0" index="0" allow="bicycle" speed="13.89" length="33.04" width="1.00" shape="8.40,-18.00 8.40,15.04"/>
    </edge>
    <edge id=":J1_15" function="internal">
        <lane id=":J1_15_0" index="0" disallow="pedestrian bicycle" speed="7.41" length="2.05" shape="6.30,-18.00 6.50,-15.96"/>
    </edge>
    <edge id=":J1_16" function="internal">
        <lane id=":J1_16_0" index="0" disallow="pedestrian bicycle" speed="13.89" length="33.02" shape="6.30,-18.00 6.30,15.03"/>
        <lane id=":J1_16_1" index="1" disallow="pedestrian bicycle" speed="13.89" length="33.02" shape="3.10,-18.00 3.10,15.01"/>
    </edge>
    <edge id=":J1_18" function="internal">
        <lane id=":J1_18_0" index="0" disallow="pedestrian bicycle" speed="10.95" length="10.70" shape="3.10,-18.00 2.22,-9.34 1.44,-7.50"/>
    </edge>
    <edge id=":J1_32" function="internal">
        <lane id=":J1_32_0" index="0" disallow="pedestrian bicycle" speed="7.41" length="9.97" shape="6.50,-15.96 6.68,-14.19 7.83,-11.47 9.74,-9.84 12.41,-9.30"/>
    </edge>
    <edge id=":J1_33" function="internal">
        <lane id=":J1_33_0" index="0" disallow="pedestrian bicycle" speed="10.95" length="16.79" shape="1.44,-7.50 -0.42,-3.15 -4.83,0.56 -11.00,1.80"/>
    </edge>
    <edge id=":J1_19" function="internal">
        <lane id=":J1_19_0" index="0" allow="bicycle" speed="5.65" length="7.28" width="1.00" shape="-11.00,-11.40 -8.99,-11.68 -7.55,-12.51 -6.69,-13.89 -6.40,-15.82"/>
    </edge>
    <edge id=":J1_20" function="internal">
        <lane id=":J1_20_0" index="0" allow="bicycle" speed="13.89" length="23.41" width="1.00" shape="-11.00,-11.40 12.41,-11.40"/>
        <lane id=":J1_20_1" index="1" disallow="pedestrian bicycle" speed="13.89" length="23.41" shape="-11.00,-9.30 12.41,-9.30"/>
        <lane id=":J1_20_2" index="2" disallow="pedestrian bicycle" speed="13.89" length="23.41" shape="-11.00,-6.10 12.41,-6.10"/>
    </edge>
    <edge id=":J1_23" function="internal">
        <lane id=":J1_23_0" index="0" allow="bicycle" speed="11.46" length="13.50" width="1.00" shape="-11.00,-4.00 -2.47,-2.81 1.74,-0.33"/>
        <lane id=":J1_23_1" index="1" disallow="pedestrian bicycle" speed="10.46" length="6.41" shape="-11.00,-1.90 -4.80,-0.84 -4.70,-0.77"/>
    </edge>
    <edge id=":J1_34" function="internal">
        <lane id=":J1_34_0" index="0" allow="bicycle" speed="11.46" length="17.53" width="1.00" shape="1.74,-0.33 3.60,0.76 7.23,6.71 8.40,15.04"/>
    </edge>
    <edge id=":J1_35" function="internal">
        <lane id=":J1_35_0" index="0" disallow="pedestrian bicycle" speed="10.46" length="18.67" shape="-4.70,-0.77 -0.38,2.33 2.25,7.61 3.10,15.01"/>
    </edge>
    <edge id=":J1_c0" function="crossing" crossingEdges="D_out D_in">
        <lane id=":J1_c0_0" index="0" allow="pedestrian" speed="2.78" length="15.81" width="4.00" shape="8.91,13.04 -6.90,12.96" outlineShape="8.90,15.04 -6.91,14.96 -7.01,14.95 -6.90,14.95 -7.01,12.71 -7.34,10.95 -6.89,10.96 8.92,11.04 8.90,15.04 10.90,15.05 12.41,13.10 12.41,11.10 11.34,11.21 11.03,11.33"/>
    </edge>
    <edge id=":J1_c1" function="crossing" crossingEdges="E1 -E1.160">
        <lane id=":J1_c1_0" index="0" allow="pedestrian" speed="2.78" length="23.00" width="4.00" shape="10.41,-11.90 10.41,11.10" outlineShape="12.41,-11.90 12.41,11.10 11.34,11.21 10.47,11.54 9.79,12.08 9.30,12.85 9.16,13.32 8.41,11.10 8.41,-11.90 9.41,-14.31 9.78,-13.43 10.46,-12.58 11.34,-12.07"/>
    </edge>
    <edge id=":J1_c2" function="crossing" crossingEdges="E3 B_in">
        <lane id=":J1_c2_0" index="0" allow="pedestrian" speed="2.78" length="15.95" width="4.00" shape="-6.90,-13.82 8.90,-16.00" outlineShape="-7.04,-15.82 8.73,-17.99 9.00,-16.14 9.29,-14.61 9.51,-14.07 9.17,-14.02 -6.63,-11.84 -7.04,-15.82 -8.90,-15.82 -11.00,-11.90 -9.75,-12.01 -8.84,-12.30"/>
    </edge>
    <edge id=":J1_c3" function="crossing" crossingEdges="-E0 E0.143">
        <lane id=":J1_c3_0" index="0" allow="pedestrian" speed="2.78" length="19.50" width="4.00" shape="-9.00,7.60 -9.00,-11.90" outlineShape="-11.00,7.60 -11.00,-12.00 -9.75,-12.01 -8.72,-12.34 -7.93,-12.88 -7.36,-13.64 -7.24,-13.98 -7.00,-11.90 -7.00,7.60 -7.74,9.90 -7.93,9.44 -8.72,8.42 -9.75,7.80"/>
    </edge>
    <edge id=":J1_w0" function="walkingarea">
        <lane id=":J1_w0_0" index="0" allow="pedestrian" speed="2.78" length="3.07" width="4.00" shape="8.90,15.04 10.90,15.05 12.41,13.10 12.41,11.10 11.34,11.21 10.47,11.54 9.79,12.08 9.30,12.85 9.00,13.84"/>
    </edge>
    <edge id=":J1_w1" function="walkingarea">
        <lane id=":J1_w1_0" index="0" allow="pedestrian" speed="2.78" length="4.22" width="4.00" shape="12.41,-11.90 12.41,-13.90 10.90,-18.00 8.90,-18.00 8.63,-17.98 9.00,-16.14 9.29,-14.61 9.78,-13.43 10.46,-12.58 11.34,-12.07"/>
    </edge>
    <edge id=":J1_w2" function="walkingarea">
        <lane id=":J1_w2_0" index="0" allow="pedestrian" speed="2.78" length="3.05" width="4.00" shape="-7.17,-15.81 -6.90,-15.82 -8.90,-15.82 -11.00,-11.90 -9.75,-12.01 -8.72,-12.34 -7.93,-12.88 -7.36,-13.64 -7.01,-14.63"/>
    </edge>
    <edge id=":J1_w3" function="walkingarea">
        <lane id=":J1_w3_0" index="0" allow="pedestrian" speed="2.78" length="5.12" width="4.00" shape="-11.00,7.60 -11.00,9.60 -8.90,14.95 -6.90,14.95 -7.01,12.71 -7.36,10.87 -7.93,9.44 -8.72,8.42 -9.75,7.80"/>
    </edge>
    <edge id=":J10_0" function="internal">
        <lane id=":J10_0_0" index="0" allow="bicycle" speed="13.89" length="9.07" width="1.00" shape="46.50,7.10 38.50,7.10"/>
        <lane id=":J10_0_1" index="1" allow="bicycle" speed="13.89" length="9.07" width="1.00" shape="46.50,7.10 43.72,5.94 42.50,3.40 41.28,0.86 38.50,-0.30"/>
        <lane id=":J10_0_2" index="2" disallow="pedestrian bicycle tram rail_urban rail rail_electric rail_fast ship container cable_car subway aircraft drone" speed="13.89" length="9.07" width="3.50" shape="46.50,5.00 43.97,5.68 42.50,7.17 41.03,8.67 38.50,9.35"/>
        <lane id=":J10_0_3" index="3" disallow="pedestrian bicycle" speed="13.89" length="9.07" shape="46.50,5.00 38.50,5.00"/>
        <lane id=":J10_0_4" index="4" disallow="pedestrian bicycle" speed="13.89" length="9.07" shape="46.50,1.80 38.50,1.80"/>
        <lane id=":J10_0_5" index="5" disallow="pedestrian bicycle" speed="13.89" length="9.07" shape="46.50,1.80 43.98,1.14 42.50,-0.30 41.02,-1.74 38.50,-2.40"/>
    </edge>
    <edge id=":J10_w0" function="walkingarea">
        <lane id=":J10_w0_0" index="0" allow="pedestrian" speed="2.78" length="8.73" width="2.00" shape="38.50,11.10 38.50,13.10 40.31,12.84 41.54,12.19 42.50,11.35 43.46,10.51 44.69,9.86 46.50,9.60 46.50,7.60 44.69,7.86 43.46,8.51 42.50,9.35 41.54,10.19 40.31,10.84"/>
    </edge>
    <edge id=":J11_0" function="internal">
        <lane id=":J11_0_0" index="0" allow="bicycle" speed="13.89" length="20.00" width="1.00" shape="-40.00,7.10 -60.00,7.10"/>
        <lane id=":J11_0_1" index="1" disallow="pedestrian bicycle" speed="13.89" length="20.00" shape="-40.00,5.00 -60.00,5.00"/>
        <lane id=":J11_0_2" index="2" disallow="pedestrian bicycle" speed="13.89" length="20.00" shape="-40.00,1.80 -60.00,1.80"/>
    </edge>
    <edge id=":J11_w0" function="walkingarea">
        <lane id=":J11_w0_0" index="0" allow="pedestrian" speed="2.78" length="20.00" width="2.00" shape="-60.00,7.60 -60.00,9.60 -40.00,9.60 -40.00,7.60"/>
    </edge>
    <edge id=":J2_w0" function="walkingarea">
        <lane id=":J2_w0_0" index="0" allow="pedestrian" speed="2.78" length="21.50" width="2.00" shape="200.00,7.60 200.00,9.60 200.00,-13.90 200.00,-11.90"/>
    </edge>
    <edge id=":J20_0" function="internal">
        <lane id=":J20_0_0" index="0" allow="bicycle" speed="13.89" length="8.34" width="1.00" shape="-84.00,-11.40 -76.00,-11.40"/>
        <lane id=":J20_0_1" index="1" disallow="pedestrian bicycle" speed="13.89" length="8.34" shape="-84.00,-9.30 -81.48,-9.96 -80.00,-11.40 -78.52,-12.84 -76.00,-13.50"/>
        <lane id=":J20_0_2" index="2" disallow="pedestrian bicycle" speed="13.89" length="8.34" shape="-84.00,-9.30 -76.00,-9.30"/>
        <lane id=":J20_0_3" index="3" disallow="pedestrian bicycle" speed="13.89" length="8.34" shape="-84.00,-6.10 -76.00,-6.10"/>
    </edge>
    <edge id=":J20_w0" function="walkingarea">
        <lane id=":J20_w0_0" index="0" allow="pedestrian" speed="2.78" length="8.62" width="2.00" shape="-76.00,-15.10 -76.00,-17.10 -77.79,-16.86 -79.03,-16.27 -80.00,-15.50 -80.97,-14.73 -82.21,-14.14 -84.00,-13.90 -84.00,-11.90 -82.21,-12.14 -80.97,-12.73 -80.00,-13.50 -79.03,-14.27 -77.79,-14.86"/>
    </edge>
    <edge id=":J3_w0" function="walkingarea">
        <lane id=":J3_w0_0" index="0" allow="pedestrian" speed="2.78" length="16.80" width="2.00" shape="-6.90,200.00 -8.90,200.00 9.90,200.05 7.90,200.04"/>
    </edge>
    <edge id=":J4_w0" function="walkingarea">
        <lane id=":J4_w0_0" index="0" allow="pedestrian" speed="2.78" length="17.80" width="2.00" shape="8.90,-200.00 10.90,-200.00 -8.90,-200.00 -6.90,-200.00"/>
    </edge>
    <edge id=":J6_0" function="internal">
        <lane id=":J6_0_0" index="0" disallow="pedestrian bicycle" speed="13.89" length="8.46" shape="-33.17,-13.50 -30.66,-13.51 -28.94,-13.57 -27.23,-13.73 -24.74,-14.05"/>
    </edge>
    <edge id=":J6_1" function="internal">
        <lane id=":J6_1_0" index="0" allow="bicycle" speed="13.89" length="9.31" width="1.00" shape="-33.17,-11.40 -24.83,-11.40"/>
        <lane id=":J6_1_1" index="1" allow="bicycle" speed="13.89" length="9.31" width="1.00" shape="-33.17,-11.40 -30.30,-10.24 -29.00,-7.70 -27.70,-5.16 -24.83,-4.00"/>
        <lane id=":J6_1_2" index="2" disallow="pedestrian bicycle" speed="13.89" length="9.31" shape="-33.17,-9.30 -24.83,-9.30"/>
        <lane id=":J6_1_3" index="3" disallow="pedestrian bicycle" speed="13.89" length="9.31" shape="-33.17,-6.10 -24.83,-6.10"/>
        <lane id=":J6_1_4" index="4" disallow="pedestrian bicycle" speed="13.89" length="9.31" shape="-33.17,-6.10 -30.56,-5.44 -29.00,-4.00 -27.45,-2.56 -24.83,-1.90"/>
    </edge>
    <edge id=":J6_w0" function="walkingarea">
        <lane id=":J6_w0_0" index="0" allow="pedestrian" speed="2.78" length="8.11" width="2.00" shape="-24.95,-15.63 -25.21,-17.62 -33.17,-17.10 -33.17,-15.10 -31.41,-15.10 -30.12,-15.12 -29.05,-15.17 -27.98,-15.26 -26.69,-15.41"/>
    </edge>
    <edge id=":J7_0" function="internal">
        <lane id=":J7_0_0" index="0" allow="bicycle" speed="13.89" length="18.98" width="1.00" shape="-6.40,-16.02 -6.40,-35.00"/>
        <lane id=":J7_0_1" index="1" disallow="pedestrian bicycle" speed="13.89" length="18.98" shape="-4.30,-16.02 -4.30,-35.00"/>
        <lane id=":J7_0_2" index="2" disallow="pedestrian bicycle" speed="13.89" length="18.98" shape="-1.10,-16.02 -1.10,-35.00"/>
    </edge>
    <edge id=":J7_3" function="internal">
        <lane id=":J7_3_0" index="0" disallow="pedestrian bicycle" speed="13.89" length="22.11" shape="-16.11,-17.12 -10.94,-21.71 -7.25,-26.22 -5.04,-30.65 -4.30,-35.00"/>
    </edge>
    <edge id=":J7_c0" function="crossing" crossingEdges="E4">
        <lane id=":J7_c0_0" index="0" allow="pedestrian" speed="2.78" length="3.20" width="4.00" shape="-13.55,-17.09 -15.53,-19.61" outlineShape="-15.13,-15.86 -17.10,-18.38 -14.06,-20.99 -11.79,-18.09 -12.61,-17.65"/>
    </edge>
    <edge id=":J7_w0" function="walkingarea">
        <lane id=":J7_w0_0" index="0" allow="pedestrian" speed="2.78" length="5.75" width="4.00" shape="-15.13,-15.86 -8.90,-16.02 -6.90,-16.02 -7.13,-17.77 -7.81,-18.80 -8.96,-19.12 -10.56,-18.74 -12.61,-17.65"/>
    </edge>
    <edge id=":J7_w1" function="walkingarea">
        <lane id=":J7_w1_0" index="0" allow="pedestrian" speed="2.78" length="11.48" width="4.00" shape="-6.90,-35.00 -8.90,-35.00 -10.31,-30.51 -8.46,-29.76 -17.10,-18.38 -13.98,-21.06 -11.43,-23.78 -9.45,-26.53 -8.03,-29.32 -7.18,-32.14"/>
    </edge>
    <edge id=":J9_0" function="internal">
        <lane id=":J9_0_0" index="0" allow="bicycle" speed="13.89" length="5.00" width="1.00" shape="40.00,-11.40 45.00,-11.40"/>
        <lane id=":J9_0_1" index="1" disallow="pedestrian bicycle" speed="13.89" length="5.00" shape="40.00,-9.30 45.00,-9.30"/>
        <lane id=":J9_0_2" index="2" disallow="pedestrian bicycle" speed="13.89" length="5.00" shape="40.00,-6.10 45.00,-6.10"/>
    </edge>
    <edge id=":J9_w0" function="walkingarea">
        <lane id=":J9_w0_0" index="0" allow="pedestrian" speed="2.78" length="5.00" width="2.00" shape="45.00,-11.90 45.00,-13.90 40.00,-13.90 40.00,-11.90"/>
    </edge>

    <edge id="-E0" from="J1" to="J11" priority="-1" shape="-11.00,0.20 -40.00,0.20">
        <lane id="-E0_0" index="0" allow="pedestrian" speed="13.89" length="29.00" width="2.00" shape="-11.00,8.60 -40.00,8.60"/>
        <lane id="-E0_1" index="1" allow="bicycle" speed="13.89" length="29.00" width="1.00" shape="-11.00,7.10 -40.00,7.10"/>
        <lane id="-E0_2" index="2" disallow="pedestrian bicycle" speed="13.89" length="29.00" shape="-11.00,5.00 -40.00,5.00"/>
        <lane id="-E0_3" index="3" disallow="pedestrian bicycle" speed="13.89" length="29.00" shape="-11.00,1.80 -40.00,1.80"/>
    </edge>
    <edge id="-E1.160" from="J10" to="J1" priority="-1" shape="40.00,-4.00 12.00,-4.00">
        <lane id="-E1.160_0" index="0" allow="pedestrian" speed="13.89" length="26.09" width="2.00" shape="38.50,12.10 12.41,12.10"/>
        <lane id="-E1.160_1" index="1" disallow="pedestrian bicycle tram rail_urban rail rail_electric rail_fast ship container cable_car subway aircraft drone" speed="13.89" length="26.09" width="3.50" shape="38.50,9.35 12.41,9.35"/>
        <lane id="-E1.160_2" index="2" allow="bicycle" speed="13.89" length="26.09" width="1.00" shape="38.50,7.10 12.41,7.10"/>
        <lane id="-E1.160_3" index="3" disallow="pedestrian bicycle" speed="13.89" length="26.09" shape="38.50,5.00 12.41,5.00"/>
        <lane id="-E1.160_4" index="4" disallow="pedestrian bicycle" speed="13.89" length="26.09" shape="38.50,1.80 12.41,1.80"/>
        <lane id="-E1.160_5" index="5" allow="bicycle" speed="13.89" length="26.09" width="1.00" shape="38.50,-0.30 12.41,-0.30"/>
        <lane id="-E1.160_6" index="6" disallow="pedestrian bicycle" speed="13.89" length="26.09" shape="38.50,-2.40 12.41,-2.40"/>
    </edge>
    <edge id="A_in" from="J0" to="J20" priority="-1" shape="-200.00,-4.50 -80.00,-4.50">
        <lane id="A_in_0" index="0" allow="pedestrian" speed="13.89" length="116.00" width="2.00" shape="-200.00,-12.90 -84.00,-12.90"/>
        <lane id="A_in_1" index="1" allow="bicycle" speed="13.89" length="116.00" width="1.00" shape="-200.00,-11.40 -84.00,-11.40"/>
        <lane id="A_in_2" index="2" disallow="pedestrian bicycle" speed="13.89" length="116.00" shape="-200.00,-9.30 -84.00,-9.30"/>
        <lane id="A_in_3" index="3" disallow="pedestrian bicycle" speed="13.89" length="116.00" shape="-200.00,-6.10 -84.00,-6.10"/>
    </edge>
    <edge id="A_out" from="J11" to="J0" priority="-1" shape="-60.00,0.20 -200.00,0.20">
        <lane id="A_out_0" index="0" allow="pedestrian" speed="13.89" length="140.00" width="2.00" shape="-60.00,8.60 -200.00,8.60"/>
        <lane id="A_out_1" index="1" allow="bicycle" speed="13.89" length="140.00" width="1.00" shape="-60.00,7.10 -200.00,7.10"/>
        <lane id="A_out_2" index="2" disallow="pedestrian bicycle" speed="13.89" length="140.00" shape="-60.00,5.00 -200.00,5.00"/>
        <lane id="A_out_3" index="3" disallow="pedestrian bicycle" speed="13.89" length="140.00" shape="-60.00,1.80 -200.00,1.80"/>
    </edge>
    <edge id="B_in" from="J4" to="J1" priority="-1" shape="1.50,-200.00 1.50,-14.00">
        <lane id="B_in_0" index="0" allow="pedestrian" speed="13.89" length="182.00" width="2.00" shape="9.90,-200.00 9.90,-18.00"/>
        <lane id="B_in_1" index="1" allow="bicycle" speed="13.89" length="182.00" width="1.00" shape="8.40,-200.00 8.40,-18.00"/>
        <lane id="B_in_2" index="2" disallow="pedestrian bicycle" speed="13.89" length="182.00" shape="6.30,-200.00 6.30,-18.00"/>
        <lane id="B_in_3" index="3" disallow="pedestrian bicycle" speed="13.89" length="182.00" shape="3.10,-200.00 3.10,-18.00"/>
    </edge>
    <edge id="B_out" from="J7" to="J4" priority="-1" shape="0.50,-30.00 0.50,-200.00">
        <lane id="B_out_0" index="0" allow="pedestrian" speed="13.89" length="165.00" width="2.00" shape="-7.90,-35.00 -7.90,-200.00"/>
        <lane id="B_out_1" index="1" allow="bicycle" speed="13.89" length="165.00" width="1.00" shape="-6.40,-35.00 -6.40,-200.00"/>
        <lane id="B_out_2" index="2" disallow="pedestrian bicycle" speed="13.89" length="165.00" shape="-4.30,-35.00 -4.30,-200.00"/>
        <lane id="B_out_3" index="3" disallow="pedestrian bicycle" speed="13.89" length="165.00" shape="-1.10,-35.00 -1.10,-200.00"/>
    </edge>
    <edge id="C_in" from="J2" to="J10" priority="-1" shape="200.00,0.20 45.00,0.20">
        <lane id="C_in_0" index="0" allow="pedestrian" speed="13.89" length="153.50" width="2.00" shape="200.00,8.60 46.50,8.60"/>
        <lane id="C_in_1" index="1" allow="bicycle" speed="13.89" length="153.50" width="1.00" shape="200.00,7.10 46.50,7.10"/>
        <lane id="C_in_2" index="2" disallow="pedestrian bicycle" speed="13.89" length="153.50" shape="200.00,5.00 46.50,5.00"/>
        <lane id="C_in_3" index="3" disallow="pedestrian bicycle" speed="13.89" length="153.50" shape="200.00,1.80 46.50,1.80"/>
    </edge>
    <edge id="C_out" from="J9" to="J2" priority="-1" shape="45.00,-4.50 200.00,-4.50">
        <lane id="C_out_0" index="0" allow="pedestrian" speed="13.89" length="155.00" width="2.00" shape="45.00,-12.90 200.00,-12.90"/>
        <lane id="C_out_1" index="1" allow="bicycle" speed="13.89" length="155.00" width="1.00" shape="45.00,-11.40 200.00,-11.40"/>
        <lane id="C_out_2" index="2" disallow="pedestrian" speed="13.89" length="155.00" shape="45.00,-9.30 200.00,-9.30"/>
        <lane id="C_out_3" index="3" disallow="pedestrian" speed="13.89" length="155.00" shape="45.00,-6.10 200.00,-6.10"/>
    </edge>
    <edge id="D_in" from="J3" to="J1" priority="-1" shape="0.50,200.00 0.50,15.00">
        <lane id="D_in_0" index="0" allow="pedestrian" speed="13.89" length="185.03" width="2.00" shape="-7.90,200.00 -7.90,14.95"/>
        <lane id="D_in_1" index="1" allow="bicycle" speed="13.89" length="185.03" width="1.00" shape="-6.40,200.00 -6.40,14.96"/>
        <lane id="D_in_2" index="2" disallow="pedestrian bicycle" speed="13.89" length="185.03" shape="-4.30,200.00 -4.30,14.97"/>
        <lane id="D_in_3" index="3" disallow="pedestrian bicycle" speed="13.89" length="185.03" shape="-1.10,200.00 -1.10,14.99"/>
    </edge>
    <edge id="D_out" from="J1" to="J3" priority="-1" shape="1.50,15.00 0.50,200.00">
        <lane id="D_out_0" index="0" allow="pedestrian" speed="13.89" length="185.01" width="2.00" shape="9.90,15.05 8.90,200.05"/>
        <lane id="D_out_1" index="1" allow="bicycle" speed="13.89" length="185.01" width="1.00" shape="8.40,15.04 7.40,200.04"/>
        <lane id="D_out_2" index="2" disallow="pedestrian bicycle" speed="13.89" length="185.01" shape="6.30,15.03 5.30,200.03"/>
        <lane id="D_out_3" index="3" disallow="pedestrian bicycle" speed="13.89" length="185.01" shape="3.10,15.01 2.10,200.01"/>
    </edge>
    <edge id="E0.101" from="J20" to="J6" priority="-1" shape="-80.00,-4.50 -30.00,-4.50">
        <lane id="E0.101_0" index="0" allow="pedestrian" speed="13.89" length="42.83" width="2.00" shape="-76.00,-16.10 -33.17,-16.10"/>
        <lane id="E0.101_1" index="1" disallow="pedestrian bicycle" speed="13.89" length="42.83" shape="-76.00,-13.50 -33.17,-13.50"/>
        <lane id="E0.101_2" index="2" allow="bicycle" speed="13.89" length="42.83" width="1.00" shape="-76.00,-11.40 -33.17,-11.40"/>
        <lane id="E0.101_3" index="3" disallow="pedestrian bicycle" speed="13.89" length="42.83" shape="-76.00,-9.30 -33.17,-9.30"/>
        <lane id="E0.101_4" index="4" disallow="pedestrian bicycle" speed="13.89" length="42.83" shape="-76.00,-6.10 -33.17,-6.10"/>
    </edge>
    <edge id="E0.143" from="J6" to="J1" priority="-1" shape="-30.00,-0.30 -10.00,-0.30">
        <lane id="E0.143_0" index="0" allow="bicycle" speed="13.89" length="13.83" width="1.00" shape="-24.83,-11.40 -11.00,-11.40"/>
        <lane id="E0.143_1" index="1" disallow="pedestrian bicycle" speed="13.89" length="13.83" shape="-24.83,-9.30 -11.00,-9.30"/>
        <lane id="E0.143_2" index="2" disallow="pedestrian bicycle" speed="13.89" length="13.83" shape="-24.83,-6.10 -11.00,-6.10"/>
        <lane id="E0.143_3" index="3" allow="bicycle" speed="13.89" length="13.83" width="1.00" shape="-24.83,-4.00 -11.00,-4.00"/>
        <lane id="E0.143_4" index="4" disallow="pedestrian bicycle" speed="13.89" length="13.83" shape="-24.83,-1.90 -11.00,-1.90"/>
    </edge>
    <edge id="E1" from="J1" to="J9" priority="-1" shape="12.00,-4.50 40.00,-4.50">
        <lane id="E1_0" index="0" allow="pedestrian" speed="13.89" length="27.59" width="2.00" shape="12.41,-12.90 40.00,-12.90"/>
        <lane id="E1_1" index="1" allow="bicycle" speed="13.89" length="27.59" width="1.00" shape="12.41,-11.40 40.00,-11.40"/>
        <lane id="E1_2" index="2" disallow="pedestrian bicycle" speed="13.89" length="27.59" shape="12.41,-9.30 40.00,-9.30"/>
        <lane id="E1_3" index="3" disallow="pedestrian bicycle" speed="13.89" length="27.59" shape="12.41,-6.10 40.00,-6.10"/>
    </edge>
    <edge id="E3" from="J1" to="J7" priority="-1" shape="0.50,-18.00 0.50,-30.00">
        <lane id="E3_0" index="0" allow="pedestrian" speed="13.89" length="0.20" width="2.00" shape="-7.90,-15.82 -7.90,-16.02"/>
        <lane id="E3_1" index="1" allow="bicycle" speed="13.89" length="0.20" width="1.00" shape="-6.40,-15.82 -6.40,-16.02"/>
        <lane id="E3_2" index="2" disallow="pedestrian" speed="13.89" length="0.20" shape="-4.30,-15.82 -4.30,-16.02"/>
        <lane id="E3_3" index="3" disallow="pedestrian" speed="13.89" length="0.20" shape="-1.10,-15.82 -1.10,-16.02"/>
    </edge>
    <edge id="E4" from="J6" to="J7" priority="-1" shape="-28.91,-11.89 -20.79,-12.95 -16.17,-15.04 -12.70,-17.76 -9.69,-20.86 -7.41,-23.84 -5.83,-27.72">
        <lane id="E4_0" index="0" allow="pedestrian" speed="13.89" length="15.64" width="2.00" shape="-25.08,-16.63 -21.95,-17.03 -18.36,-18.66 -15.52,-20.89 -12.88,-23.61 -11.09,-25.95 -9.38,-30.13"/>
        <lane id="E4_1" index="1" disallow="pedestrian" speed="13.89" length="15.64" shape="-24.74,-14.05 -21.23,-14.51 -17.01,-16.42 -16.11,-17.12"/>
    </edge>

    <tlLogic id="J1" type="static" programID="0" offset="0">
        <phase duration="32" state="rrrrrrrggGGGggrrrrrrrgGGGggGrGr"/>
        <phase duration="5"  state="rrrrrrrggGGGggrrrrrrrgGGGggrrrr"/>
        <phase duration="3"  state="rrrrrrryyyyyggrrrrrrryyyyggrrrr"/>
        <phase duration="6"  state="rrrrrrrrrrrrGGrrrrrrrrrrrGGrrrr"/>
        <phase duration="3"  state="rrrrrrrrrrrryyrrrrrrrrrrryyrrrr"/>
        <phase duration="31" state="gGggGGgrrrrrrrgGggGGgrrrrrrrGrG"/>
        <phase duration="5"  state="gGggGGgrrrrrrrgGggGGgrrrrrrrrrr"/>
        <phase duration="3"  state="yyyyyyyrrrrrrryyyyyyyrrrrrrrrrr"/>
        <phase duration="2"  state="rrrrrrrrrrrrrrrrrrrrrrrrrrrrrrr"/>
    </tlLogic>

    <junction id="J0" type="dead_end" x="-200.00" y="0.00" incLanes="A_out_0 A_out_1 A_out_2 A_out_3" intLanes="" shape="-200.00,-4.50 -200.00,9.60 -200.00,0.20"/>