<?xml version="1.0" encoding="UTF-8"?>

<!-- generated on 2025-02-10 17:27:06 by Eclipse SUMO netedit Version 1.21.0
<neteditConfiguration xmlns:xsi="http://www.w3.org/2001/XMLSchema-instance" xsi:noNamespaceSchemaLocation="http://sumo.dlr.de/xsd/neteditConfiguration.xsd">

    <input>
        <sumocfg-file value="C:\Users\Ali Rockaya\Desktop\Random\13  - Traffic light mode - all movments\13.sumocfg"/>
        <additional-files value="C:\Users\Ali Rockaya\Desktop\Random\13  - Traffic light mode - all movments\13.add.xml"/>
        <route-files value="C:\Users\Ali Rockaya\Desktop\Random\13  - Traffic light mode - all movments\13.rou.xml"/>
        <data-files value="C:\Users\Ali Rockaya\Desktop\Random\13  - Traffic light mode - all movments\13.dat.xml"/>
        <sumo-net-file value="C:\Users\Ali Rockaya\Desktop\Random\13  - Traffic light mode - all movments\Variant13_p42.net.xml"/>
    </input>

    <output>
        <output-file value="C:\Users\Ali Rockaya\Desktop\Random\13  - Traffic light mode - all movments\Variant13_p42.net.xml"/>
    </output>

    <processing>
        <geometry.min-radius.fix.railways value="false"/>
        <geometry.max-grade.fix value="false"/>
        <offset.disable-normalization value="true"/>
        <lefthand value="0"/>
    </processing>

    <junctions>
        <no-internal-links value="false"/>
        <no-turnarounds value="true"/>
        <junctions.corner-detail value="5"/>
        <junctions.limit-turn-speed value="5.50"/>
        <rectangular-lane-cut value="0"/>
    </junctions>

    <pedestrian>
        <walkingareas value="0"/>
    </pedestrian>

</neteditConfiguration>
-->

<net version="1.20" junctionCornerDetail="5" limitTurnSpeed="5.50" xmlns:xsi="http://www.w3.org/2001/XMLSchema-instance" xsi:noNamespaceSchemaLocation="http://sumo.dlr.de/xsd/net_file.xsd">

    <location netOffset="0.00,0.00" convBoundary="-200.00,-200.00,200.00,200.00" origBoundary="-10000000000.00,-10000000000.00,10000000000.00,10000000000.00" projParameter="!"/>

    <edge id=":J0_w0" function="walkingarea">
        <lane id=":J0_w0_0" index="0" allow="pedestrian" speed="2.78" length="13.60" width="2.00" shape="-200.00,-7.40 -200.00,-9.40 -200.00,6.20 -200.00,4.20"/>
    </edge>
    <edge id=":J2_w0" function="walkingarea">
        <lane id=":J2_w0_0" index="0" allow="pedestrian" speed="2.78" length="13.60" width="2.00" shape="200.00,4.20 200.00,6.20 200.00,-9.40 200.00,-7.40"/>
    </edge>
    <edge id=":J3_w0" function="walkingarea">
        <lane id=":J3_w0_0" index="0" allow="pedestrian" speed="2.78" length="8.40" width="2.00" shape="-16.80,-200.00 -14.80,-200.00 -25.20,-200.00 -23.20,-200.00"/>
    </edge>
    <edge id=":J4_w0" function="walkingarea">
        <lane id=":J4_w0_0" index="0" allow="pedestrian" speed="2.78" length="8.40" width="2.00" shape="16.80,200.00 14.80,200.00 25.20,200.00 23.20,200.00"/>
    </edge>
    <edge id=":J5_0" function="internal">
        <lane id=":J5_0_0" index="0" allow="bicycle" speed="13.89" length="13.40" width="1.00" shape="-13.30,3.70 -26.70,3.70"/>
        <lane id=":J5_0_1" index="1" disallow="pedestrian bicycle" speed="13.89" length="13.40" shape="-13.30,1.60 -26.70,1.60"/>
    </edge>
    <edge id=":J5_2" function="internal">
        <lane id=":J5_2_0" index="0" disallow="pedestrian" speed="8.69" length="7.75" shape="-13.30,1.60 -16.93,0.82 -19.52,-1.53 -19.73,-2.03"/>
        <lane id=":J5_2_1" index="1" allow="bicycle" speed="7.81" length="5.25" width="1.00" shape="-13.30,-2.70 -17.41,-3.21 -18.40,-3.73"/>
    </edge>
    <edge id=":J5_12" function="internal">
        <lane id=":J5_12_0" index="0" disallow="pedestrian" speed="8.69" length="9.15" shape="-19.73,-2.03 -21.08,-5.43 -21.60,-10.90"/>
    </edge>
    <edge id=":J5_13" function="internal">
        <lane id=":J5_13_0" index="0" allow="bicycle" speed="7.81" length="8.95" width="1.00" shape="-18.40,-3.73 -20.35,-4.75 -22.11,-7.31 -22.70,-10.90"/>
    </edge>
    <edge id=":J5_4" function="internal">
        <lane id=":J5_4_0" index="0" allow="bicycle" speed="5.61" length="6.45" width="1.00" shape="-17.30,-10.90 -17.05,-9.15 -16.30,-7.90 -15.05,-7.15 -13.30,-6.90"/>
        <lane id=":J5_4_1" index="1" disallow="pedestrian" speed="6.51" length="9.05" shape="-18.40,-10.90 -18.08,-8.23 -17.12,-6.33 -15.53,-5.18 -13.30,-4.80"/>
    </edge>
    <edge id=":J5_6" function="internal">
        <lane id=":J5_6_0" index="0" allow="bicycle" speed="8.94" length="13.37" width="1.00" shape="-19.50,-10.90 -19.95,-4.51 -21.30,0.05 -22.70,1.75"/>
        <lane id=":J5_6_1" index="1" disallow="pedestrian" speed="8.69" length="12.70" shape="-18.40,-10.90 -18.92,-5.43 -20.48,-1.52 -22.70,0.49"/>
    </edge>
    <edge id=":J5_14" function="internal">
        <lane id=":J5_14_0" index="0" allow="bicycle" speed="8.94" length="4.62" width="1.00" shape="-22.70,1.75 -23.55,2.79 -26.70,3.70"/>
    </edge>
    <edge id=":J5_15" function="internal">
        <lane id=":J5_15_0" index="0" disallow="pedestrian" speed="8.69" length="4.21" shape="-22.70,0.49 -23.07,0.82 -26.70,1.60"/>
    </edge>
    <edge id=":J5_8" function="internal">
        <lane id=":J5_8_0" index="0" allow="bicycle" speed="5.34" length="6.45" width="1.00" shape="-26.70,-6.90 -24.95,-7.15 -23.70,-7.90 -22.95,-9.15 -22.70,-10.90"/>
    </edge>
    <edge id=":J5_9" function="internal">
        <lane id=":J5_9_0" index="0" allow="bicycle" speed="13.89" length="13.40" width="1.00" shape="-26.70,-6.90 -13.30,-6.90"/>
    </edge>
    <edge id=":J5_10" function="internal">
        <lane id=":J5_10_0" index="0" disallow="pedestrian bicycle" speed="6.51" length="1.26" shape="-26.70,-4.80 -25.45,-5.01"/>
    </edge>
    <edge id=":J5_11" function="internal">
        <lane id=":J5_11_0" index="0" disallow="pedestrian" speed="13.89" length="13.40" shape="-26.70,-4.80 -13.30,-4.80"/>
    </edge>
    <edge id=":J5_16" function="internal">
        <lane id=":J5_16_0" index="0" disallow="pedestrian bicycle" speed="6.51" length="7.78" shape="-25.45,-5.01 -24.47,-5.18 -22.88,-6.33 -21.92,-8.23 -21.60,-10.90"/>
    </edge>
    <edge id=":J5_c0" function="crossing" crossingEdges="B_out B_in">
        <lane id=":J5_c0_0" index="0" allow="pedestrian" speed="2.78" length="6.40" width="4.00" shape="-23.20,-8.90 -16.80,-8.90" outlineShape="-23.20,-10.90 -16.80,-10.90 -16.70,-9.83 -16.41,-8.96 -15.92,-8.28 -15.24,-7.79 -14.58,-7.57 -16.80,-6.90 -23.20,-6.90 -25.42,-7.57 -24.76,-7.79 -24.07,-8.28 -23.59,-8.96 -23.30,-9.83"/>
    </edge>
    <edge id=":J5_c1" function="crossing" crossingEdges="A_out A_in">
        <lane id=":J5_c1_0" index="0" allow="pedestrian" speed="2.78" length="11.60" width="4.00" shape="-24.70,4.20 -24.70,-7.40" outlineShape="-26.70,4.30 -26.70,-7.50 -25.63,-7.50 -24.76,-7.79 -24.07,-8.28 -23.59,-8.96 -23.37,-9.62 -22.70,-7.40 -22.70,4.20"/>
    </edge>
    <edge id=":J5_w0" function="walkingarea">
        <lane id=":J5_w0_0" index="0" allow="pedestrian" speed="2.78" length="9.03" width="4.00" shape="-22.70,4.20 -26.70,4.20 -26.70,6.20 -13.30,6.20 -13.30,4.20"/>
    </edge>
    <edge id=":J5_w1" function="walkingarea">
        <lane id=":J5_w1_0" index="0" allow="pedestrian" speed="2.78" length="3.10" width="4.00" shape="-13.30,-7.40 -13.30,-9.40 -14.80,-10.90 -16.80,-10.90 -16.70,-9.83 -16.41,-8.96 -15.92,-8.28 -15.24,-7.79 -14.37,-7.50"/>
    </edge>
    <edge id=":J5_w2" function="walkingarea">
        <lane id=":J5_w2_0" index="0" allow="pedestrian" speed="2.78" length="2.87" width="4.00" shape="-23.20,-10.90 -25.20,-10.90 -26.70,-9.40 -26.70,-7.40 -25.63,-7.50 -24.76,-7.79 -24.07,-8.28 -23.59,-8.96 -23.30,-9.83"/>
    </edge>
    <edge id=":J7_0" function="internal">
        <lane id=":J7_0_0" index="0" allow="bicycle" speed="5.61" length="6.45" width="1.00" shape="17.30,7.70 17.05,5.95 16.30,4.70 15.05,3.95 13.30,3.70"/>
        <lane id=":J7_0_1" index="1" disallow="pedestrian" speed="6.51" length="9.05" shape="18.40,7.70 18.08,5.03 17.12,3.13 15.53,1.98 13.30,1.60"/>
    </edge>
    <edge id=":J7_2" function="internal">
        <lane id=":J7_2_0" index="0" disallow="pedestrian" speed="8.69" length="12.70" shape="18.40,7.70 18.92,2.23 20.48,-1.68 22.70,-3.69"/>
    </edge>
    <edge id=":J7_10" function="internal">
        <lane id=":J7_10_0" index="0" disallow="pedestrian" speed="8.69" length="4.21" shape="22.70,-3.69 23.07,-4.02 26.70,-4.80"/>
    </edge>
    <edge id=":J7_3" function="internal">
        <lane id=":J7_3_0" index="0" allow="bicycle" speed="5.34" length="6.45" width="1.00" shape="26.70,3.70 24.95,3.95 23.70,4.70 22.95,5.95 22.70,7.70"/>
    </edge>
    <edge id=":J7_4" function="internal">
        <lane id=":J7_4_0" index="0" allow="bicycle" speed="13.89" length="13.40" width="1.00" shape="26.70,3.70 13.30,3.70"/>
    </edge>
    <edge id=":J7_5" function="internal">
        <lane id=":J7_5_0" index="0" disallow="pedestrian" speed="6.51" length="1.26" shape="26.70,1.60 25.45,1.81"/>
    </edge>
    <edge id=":J7_6" function="internal">
        <lane id=":J7_6_0" index="0" disallow="pedestrian" speed="13.89" length="13.40" shape="26.70,1.60 13.30,1.60"/>
    </edge>
    <edge id=":J7_11" function="internal">
        <lane id=":J7_11_0" index="0" disallow="pedestrian" speed="6.51" length="7.78" shape="25.45,1.81 24.47,1.98 22.87,3.13 21.92,5.03 21.60,7.70"/>
    </edge>
    <edge id=":J7_7" function="internal">
        <lane id=":J7_7_0" index="0" allow="bicycle" speed="13.89" length="13.40" width="1.00" shape="13.30,-6.90 26.70,-6.90"/>
        <lane id=":J7_7_1" index="1" disallow="pedestrian" speed="13.89" length="13.40" shape="13.30,-4.80 26.70,-4.80"/>
    </edge>
    <edge id=":J7_9" function="internal">
        <lane id=":J7_9_0" index="0" disallow="pedestrian" speed="8.69" length="7.75" shape="13.30,-4.80 16.93,-4.02 19.52,-1.67 19.73,-1.17"/>
    </edge>
    <edge id=":J7_12" function="internal">
        <lane id=":J7_12_0" index="0" disallow="pedestrian" speed="8.69" length="9.15" shape="19.73,-1.17 21.08,2.23 21.60,7.70"/>
    </edge>
    <edge id=":J7_c0" function="crossing" crossingEdges="D_out D_in">
        <lane id=":J7_c0_0" index="0" allow="pedestrian" speed="2.78" length="6.40" width="4.00" shape="23.20,5.70 16.80,5.70" outlineShape="23.20,7.70 16.80,7.70 16.70,6.63 16.41,5.76 15.92,5.08 15.24,4.59 14.58,4.37 16.80,3.70 23.20,3.70 25.42,4.37 24.76,4.59 24.08,5.08 23.59,5.76 23.30,6.63"/>
    </edge>
    <edge id=":J7_c1" function="crossing" crossingEdges="C_out C_in">
        <lane id=":J7_c1_0" index="0" allow="pedestrian" speed="2.78" length="11.60" width="4.00" shape="24.70,-7.40 24.70,4.20" outlineShape="26.70,-7.50 26.70,4.20 25.63,4.30 24.76,4.59 24.08,5.08 23.59,5.76 23.37,6.42 22.70,4.20 22.70,-7.40"/>
    </edge>
    <edge id=":J7_w0" function="walkingarea">
        <lane id=":J7_w0_0" index="0" allow="pedestrian" speed="2.78" length="3.10" width="4.00" shape="13.30,4.20 13.30,6.20 14.80,7.70 16.80,7.70 16.70,6.63 16.41,5.76 15.92,5.08 15.24,4.59 14.37,4.30"/>
    </edge>
    <edge id=":J7_w1" function="walkingarea">
        <lane id=":J7_w1_0" index="0" allow="pedestrian" speed="2.78" length="2.87" width="4.00" shape="23.20,7.70 25.20,7.70 26.70,6.20 26.70,4.20 25.63,4.30 24.76,4.59 24.08,5.08 23.59,5.76 23.30,6.63"/>
    </edge>
    <edge id=":J7_w2" function="walkingarea">
        <lane id=":J7_w2_0" index="0" allow="pedestrian" speed="2.78" length="9.03" width="4.00" shape="22.70,-7.40 26.70,-7.40 26.70,-9.40 13.30,-9.40 13.30,-7.40"/>
    </edge>
    <edge id=":J8_0" function="internal">
        <lane id=":J8_0_0" index="0" allow="bicycle" speed="13.89" length="4.36" width="1.00" shape="-5.16,3.70 -8.16,3.70"/>
        <lane id=":J8_0_1" index="1" allow="bicycle" speed="13.89" length="4.36" width="1.00" shape="-5.16,3.70 -8.16,-2.70"/>
        <lane id=":J8_0_2" index="2" disallow="pedestrian bicycle" speed="13.89" length="4.36" shape="-5.16,1.60 -8.16,1.60"/>
    </edge>
    <edge id=":J8_3" function="internal">
        <lane id=":J8_3_0" index="0" allow="bicycle" speed="13.89" length="3.00" width="1.00" shape="-8.16,-6.90 -5.16,-6.90"/>
        <lane id=":J8_3_1" index="1" disallow="pedestrian bicycle" speed="13.89" length="3.00" shape="-8.16,-4.80 -5.16,-4.80"/>
    </edge>
    <edge id=":J8_w0" function="walkingarea">
        <lane id=":J8_w0_0" index="0" allow="pedestrian" speed="2.78" length="3.00" width="2.00" shape="-8.16,4.20 -8.16,6.20 -5.16,6.20 -5.16,4.20"/>
    </edge>
    <edge id=":J8_w1" function="walkingarea">
        <lane id=":J8_w1_0" index="0" allow="pedestrian" speed="2.78" length="3.00" width="2.00" shape="-5.16,-7.40 -5.16,-9.40 -8.16,-9.40 -8.16,-7.40"/>
    </edge>
    <edge id=":J9_0" function="internal">
        <lane id=":J9_0_0" index="0" allow="bicycle" speed="13.89" length="3.00" width="1.00" shape="8.16,3.70 5.16,3.70"/>
        <lane id=":J9_0_1" index="1" disallow="pedestrian bicycle" speed="13.89" length="3.00" shape="8.16,1.60 5.16,1.60"/>
    </edge>
    <edge id=":J9_2" function="internal">
        <lane id=":J9_2_0" index="0" allow="bicycle" speed="13.89" length="4.36" width="1.00" shape="5.16,-6.90 8.16,-6.90"/>
        <lane id=":J9_2_1" index="1" allow="bicycle" speed="13.89" length="4.36" width="1.00" shape="5.16,-6.90 8.16,-0.50"/>
        <lane id=":J9_2_2" index="2" disallow="pedestrian bicycle" speed="13.89" length="4.36" shape="5.16,-4.80 8.16,-4.80"/>
    </edge>
    <edge id=":J9_w0" function="walkingarea">
        <lane id=":J9_w0_0" index="0" allow="pedestrian" speed="2.78" length="3.00" width="2.00" shape="5.16,4.20 5.16,6.20 8.16,6.20 8.16,4.20"/>
    </edge>
    <edge id=":J9_w1" function="walkingarea">
        <lane id=":J9_w1_0" index="0" allow="pedestrian" speed="2.78" length="3.00" width="2.00" shape="8.16,-7.40 8.16,-9.40 5.16,-9.40 5.16,-7.40"/>
    </edge>

    <edge id="-E1.174" from="J7" to="J9" priority="5">
        <lane id="-E1.174_0" index="0" allow="pedestrian" speed="13.89" length="5.14" width="2.00" shape="13.30,5.20 8.16,5.20"/>
        <lane id="-E1.174_1" index="1" allow="bicycle" speed="13.89" length="5.14" width="1.00" shape="13.30,3.70 8.16,3.70"/>
        <lane id="-E1.174_2" index="2" disallow="pedestrian" speed="13.89" length="5.14" shape="13.30,1.60 8.16,1.60"/>
    </edge>
    <edge id="-E1.185" from="J9" to="J8" priority="5" shape="6.66,0.00 0.00,0.00 -6.66,0.00">
        <lane id="-E1.185_0" index="0" allow="pedestrian" speed="13.89" length="10.32" width="2.00" shape="5.16,5.20 0.00,5.20 -5.16,5.20"/>
        <lane id="-E1.185_1" index="1" allow="bicycle" speed="13.89" length="10.32" width="1.00" shape="5.16,3.70 0.00,3.70 -5.16,3.70"/>
        <lane id="-E1.185_2" index="2" disallow="pedestrian" speed="13.89" length="10.32" shape="5.16,1.60 0.00,1.60 -5.16,1.60"/>
    </edge>
    <edge id="-E10" from="J8" to="J5" priority="5" shape="-6.66,-3.20 -20.00,-3.20">
        <lane id="-E10_0" index="0" allow="pedestrian" speed="13.89" length="5.14" width="2.00" shape="-8.16,5.20 -13.30,5.20"/>
        <lane id="-E10_1" index="1" allow="bicycle" speed="13.89" length="5.14" width="1.00" shape="-8.16,3.70 -13.30,3.70"/>
        <lane id="-E10_2" index="2" disallow="pedestrian" speed="13.89" length="5.14" shape="-8.16,1.60 -13.30,1.60"/>
        <lane id="-E10_3" index="3" disallow="all" speed="13.89" length="5.14" width="2.20" shape="-8.16,-1.10 -13.30,-1.10"/>
        <lane id="-E10_4" index="4" allow="bicycle" speed="13.89" length="5.14" width="1.00" shape="-8.16,-2.70 -13.30,-2.70"/>
    </edge>
    <edge id="A_in" from="J0" to="J5" priority="5">
        <lane id="A_in_0" index="0" allow="pedestrian" speed="13.89" length="173.30" width="2.00" shape="-200.00,-8.40 -26.70,-8.40"/>
        <lane id="A_in_1" index="1" allow="bicycle" speed="13.89" length="173.30" width="1.00" shape="-200.00,-6.90 -26.70,-6.90"/>
        <lane id="A_in_2" index="2" disallow="pedestrian" speed="13.89" length="173.30" shape="-200.00,-4.80 -26.70,-4.80"/>
        <lane id="A_in_3" index="3" disallow="all" speed="13.89" length="173.30" shape="-200.00,-1.60 -26.70,-1.60"/>
    </edge>
    <edge id="A_out" from="J5" to="J0" priority="5">
        <lane id="A_out_0" index="0" allow="pedestrian" speed="13.89" length="173.30" width="2.00" shape="-26.70,5.20 -200.00,5.20"/>
        <lane id="A_out_1" index="1" allow="bicycle" speed="13.89" length="173.30" width="1.00" shape="-26.70,3.70 -200.00,3.70"/>
        <lane id="A_out_2" index="2" disallow="pedestrian" speed="13.89" length="173.30" shape="-26.70,1.60 -200.00,1.60"/>
    </edge>
    <edge id="B_in" from="J3" to="J5" priority="1">
        <lane id="B_in_0" index="0" allow="pedestrian" speed="13.89" length="189.10" width="2.00" shape="-15.80,-200.00 -15.80,-10.90"/>
        <lane id="B_in_1" index="1" disallow="pedestrian" speed="13.89" length="189.10" shape="-18.40,-200.00 -18.40,-10.90"/>
    </edge>
    <edge id="B_out" from="J5" to="J3" priority="1">
        <lane id="B_out_0" index="0" allow="pedestrian" speed="13.89" length="189.10" width="2.00" shape="-24.20,-10.90 -24.20,-200.00"/>
        <lane id="B_out_1" index="1" disallow="pedestrian" speed="13.89" length="189.10" shape="-21.60,-10.90 -21.60,-200.00"/>
    </edge>
    <edge id="C_in" from="J2" to="J7" priority="5">
        <lane id="C_in_0" index="0" allow="pedestrian" speed="13.89" length="173.30" width="2.00" shape="200.00,5.20 26.70,5.20"/>
        <lane id="C_in_1" index="1" allow="bicycle" speed="13.89" length="173.30" width="1.00" shape="200.00,3.70 26.70,3.70"/>
        <lane id="C_in_2" index="2" disallow="pedestrian" speed="13.89" length="173.30" shape="200.00,1.60 26.70,1.60"/>
    </edge>
    <edge id="C_out" from="J7" to="J2" priority="5">
        <lane id="C_out_0" index="0" allow="pedestrian" speed="13.89" length="173.30" width="2.00" shape="26.70,-8.40 200.00,-8.40"/>
        <lane id="C_out_1" index="1" allow="bicycle" speed="13.89" length="173.30" width="1.00" shape="26.70,-6.90 200.00,-6.90"/>
        <lane id="C_out_2" index="2" disallow="pedestrian" speed="13.89" length="173.30" shape="26.70,-4.80 200.00,-4.80"/>
        <lane id="C_out_3" index="3" disallow="all" speed="13.89" length="173.30" shape="26.70,-1.60 200.00,-1.60"/>
    </edge>
    <edge id="D_in" from="J4" to="J7" priority="1">
        <lane id="D_in_0" index="0" allow="pedestrian" speed="13.89" length="192.30" width="2.00" shape="15.80,200.00 15.80,7.70"/>
        <lane id="D_in_1" index="1" disallow="pedestrian" speed="13.89" length="192.30" shape="18.40,200.00 18.40,7.70"/>
    </edge>
    <edge id="D_out" from="J7" to="J4" priority="1">
        <lane id="D_out_0" index="0" allow="pedestrian" speed="13.89" length="192.30" width="2.00" shape="24.20,7.70 24.20,200.00"/>
        <lane id="D_out_1" index="1" disallow="pedestrian" speed="13.89" length="192.30" shape="21.60,7.70 21.60,200.00"/>
    </edge>
    <edge id="E1" from="J5" to="J8" priority="5" shape="-20.00,-3.20 -6.66,-3.20">
        <lane id="E1_0" index="0" allow="pedestrian" speed="13.89" length="5.14" width="2.00" shape="-13.30,-8.40 -8.16,-8.40"/>
        <lane id="E1_1" index="1" allow="bicycle" speed="13.89" length="5.14" width="1.00" shape="-13.30,-6.90 -8.16,-6.90"/>
        <lane id="E1_2" index="2" disallow="pedestrian" speed="13.89" length="5.14" shape="-13.30,-4.80 -8.16,-4.80"/>
    </edge>
    <edge id="E1.13" from="J8" to="J9" priority="5" shape="-6.66,0.00 0.00,0.00 6.66,0.00">
        <lane id="E1.13_0" index="0" allow="pedestrian" speed="13.89" length="10.32" width="2.00" shape="-5.16,-8.40 0.00,-8.40 5.16,-8.40"/>
        <lane id="E1.13_1" index="1" allow="bicycle" speed="13.89" length="10.32" width="1.00" shape="-5.16,-6.90 0.00,-6.90 5.16,-6.90"/>
        <lane id="E1.13_2" index="2" disallow="pedestrian" speed="13.89" length="10.32" shape="-5.16,-4.80 0.00,-4.80 5.16,-4.80"/>
        <lane id="E1.13_3" index="3" disallow="all" speed="13.89" length="10.32" shape="-5.16,-1.60 0.00,-1.60 5.16,-1.60"/>
    </edge>
    <edge id="E1.174" from="J9" to="J7" priority="5">
        <lane id="E1.174_0" index="0" allow="pedestrian" speed="13.89" length="5.14" width="2.00" shape="8.16,-8.40 13.30,-8.40"/>
        <lane id="E1.174_1" index="1" allow="bicycle" speed="13.89" length="5.14" width="1.00" shape="8.16,-6.90 13.30,-6.90"/>
        <lane id="E1.174_2" index="2" disallow="pedestrian" speed="13.89" length="5.14" shape="8.16,-4.80 13.30,-4.80"/>
        <lane id="E1.174_3" index="3" disallow="all" speed="13.89" length="5.14" width="2.20" shape="8.16,-2.10 13.30,-2.10"/>
        <lane id="E1.174_4" index="4" allow="bicycle" speed="13.89" length="5.14" width="1.00" shape="8.16,-0.50 13.30,-0.50"/>
    </edge>

    <tlLogic id="J5" type="static" programID="0" offset="0">
        <phase duration="33" state="GGggrrrrgGgGGr"/>
        <phase duration="5"  state="GGggrrrrgGgGrr"/>
        <phase duration="3"  state="GGggrrrryyyyrr"/>
        <phase duration="6"  state="GGgGrrrrrrrrrr"/>
        <phase duration="3"  state="yyyyrrrrrrrrrr"/>
        <phase duration="32" state="rrrrGGggrrrrrG"/>
        <phase duration="5"  state="rrrrGGggrrrrrr"/>
        <phase duration="3"  state="rrrryyyyrrrrrr"/>
    </tlLogic>
    <tlLogic id="J7" type="static" programID="0" offset="0">
        <phase duration="37" state="rrrgGgGGGgGr"/>
        <phase duration="5"  state="rrrgGgGGGgrr"/>
        <phase duration="3"  state="rrryyyyyyyrr"/>
        <phase duration="37" state="GGgrrrrrrrrG"/>
        <phase duration="5"  state="GGgrrrrrrrrr"/>
        <phase duration="3"  state="yyyrrrrrrrrr"/>
    </tlLogic>

    <junction id="J0" type="dead_end" x="-200.00" y="0.00" incLanes="A_out_0 A_out_1 A_out_2" intLanes="" shape="-200.00,-3.20 -200.00,6.20 -200.00,0.00"/>
    <junction id="J2" type="dead_end" x="200.00" y="0.00" incLanes="C_out_0 C_out_1 C_out_2 C_out_3" intLanes="" shape="200.00,0.00 200.00,-9.40 200.00,-3.20"/>
    <junction id="J3" type="dead_end" x="-20.00" y="-200.00" incLanes="B_out_0 B_out_1" intLanes="" shape="-20.00,-200.00 -25.20,-200.00 -20.00,-200.00"/>
    <junction id="J4" type="dead_end" x="20.00" y="200.00" incLanes="D_out_0 D_out_1" intLanes="" shape="20.00,200.00 25.20,200.00 20.00,200.00"/>
    <junction id="J5" type="traffic_light" x="-20.00" y="0.00" incLanes="-E10_0 -E10_1 -E10_2 -E10_3 -E10_4 B_in_0 B_in_1 A_in_0 A_in_1 A_in_2 A_in_3 :J5_w2_0 :J5_w0_0" intLanes=":J5_0_0 :J5_0_1 :J5_12_0 :J5_13_0 :J5_4_0 :J5_4_1 :J5_14_0 :J5_15_0 :J5_8_0 :J5_9_0 :J5_16_0 :J5_11_0 :J5_c0_0 :J5_c1_0" shape="-13.30,6.20 -13.30,-9.40 -14.13,-9.57 -14.42,-9.78 -14.63,-10.07 -14.76,-10.44 -14.80,-10.90 -25.20,-10.90 -25.37,-10.07 -25.57,-9.77 -25.87,-9.57 -26.24,-9.44 -26.70,-9.40 -26.70,6.20">
        <request index="0"  response="10000001000000" foes="10000001000000" cont="0"/>
        <request index="1"  response="10000011000000" foes="10000011000000" cont="0"/>
        <request index="2"  response="01111111001000" foes="01111111001000" cont="1"/>
        <request index="3"  response="01111111000000" foes="01111111000100" cont="1"/>
        <request index="4"  response="01001000000000" foes="01001000000000" cont="0"/>
        <request index="5"  response="01101000000000" foes="01101000000000" cont="0"/>
        <request index="6"  response="11101000001111" foes="11101000001111" cont="1"/>
        <request index="7"  response="11101000001110" foes="11101000001110" cont="1"/>
        <request index="8"  response="11000000000000" foes="11010000001100" cont="0"/>
        <request index="9"  response="10000011000000" foes="10010011111100" cont="0"/>
        <request index="10" response="11001100000000" foes="11001100001100" cont="1"/>
        <request index="11" response="10000011000000" foes="10000011101100" cont="0"/>
        <request index="12" response="00000000000000" foes="00010111111100" cont="0"/>
        <request index="13" response="00000000000000" foes="00111111000011" cont="0"/>
    </junction>
    <junction id="J7" type="traffic_light" x="20.00" y="0.00" incLanes="D_in_0 D_in_1 C_in_0 C_in_1 C_in_2 E1.174_0 E1.174_1 E1.174_2 E1.174_3 E1.174_4 :J7_w1_0 :J7_w2_0" intLanes=":J7_0_0 :J7_0_1 :J7_10_0 :J7_3_0 :J7_4_0 :J7_11_0 :J7_6_0 :J7_7_0 :J7_7_1 :J7_12_0 :J7_c0_0 :J7_c1_0" shape="14.80,7.70 25.20,7.70 25.37,6.87 25.57,6.57 25.87,6.37 26.24,6.24 26.70,6.20 26.70,-9.40 13.30,-9.40 13.30,6.20 14.13,6.37 14.43,6.58 14.63,6.87 14.76,7.24">
        <request index="0"  response="010000010000" foes="010000010000" cont="0"/>
        <request index="1"  response="010001010000" foes="010001010000" cont="0"/>
        <request index="2"  response="111101010000" foes="111101010000" cont="1"/>
        <request index="3"  response="110000000000" foes="111000100000" cont="0"/>
        <request index="4"  response="100000000100" foes="101000100111" cont="0"/>
        <request index="5"  response="110000011000" foes="111000011000" cont="1"/>
        <request index="6"  response="100000000100" foes="101000000110" cont="0"/>
        <request index="7"  response="100000000000" foes="100000000000" cont="0"/>
        <request index="8"  response="100000000100" foes="100000000100" cont="0"/>
        <request index="9"  response="010001111100" foes="010001111100" cont="1"/>
        <request index="10" response="000000000000" foes="001000101111" cont="0"/>
        <request index="11" response="000000000000" foes="000111111100" cont="0"/>
    </junction>
    <junction id="J8" type="priority" x="-6.66" y="0.00" incLanes="-E1.185_0 -E1.185_1 -E1.185_2 E1_0 E1_1 E1_2" intLanes=":J8_0_0 :J8_0_1 :J8_0_2 :J8_3_0 :J8_3_1" shape="-5.16,6.20 -5.16,-9.40 -8.16,-9.40 -8.16,6.20">
        <request index="0" response="00000" foes="00000" cont="0"/>
        <request index="1" response="00100" foes="00100" cont="0"/>
        <request index="2" response="00000" foes="00010" cont="0"/>
        <request index="3" response="00000" foes="00000" cont="0"/>
        <request index="4" response="00000" foes="00000" cont="0"/>
    </junction>
    <junction id="J9" type="priority" x="6.66" y="0.00" incLanes="-E1.174_0 -E1.174_1 -E1.174_2 E1.13_0 E1.13_1 E1.13_2 E1.13_3" intLanes=":J9_0_0 :J9_0_1 :J9_2_0 :J9_2_1 :J9_2_2" shape="8.16,6.20 8.16,-9.40 5.16,-9.40 5.16,6.20">
        <request index="0" response="00000" foes="00000" cont="0"/>
        <request index="1" response="00000" foes="00000" cont="0"/>
        <request index="2" response="00000" foes="00000" cont="0"/>
        <request index="3" response="10000" foes="10000" cont="0"/>
        <request index="4" response="00000" foes="01000" cont="0"/>
    </junction>

    <junction id=":J5_12_0" type="internal" x="-19.73" y="-2.03" incLanes=":J5_2_0 A_in_1 A_in_2" intLanes=":J5_2_1 :J5_6_0 :J5_6_1 :J5_8_0 :J5_9_0 :J5_10_0 :J5_11_0 :J5_c0_0"/>
    <junction id=":J5_13_0" type="internal" x="-18.40" y="-3.73" incLanes=":J5_2_1 A_in_1 A_in_2" intLanes=":J5_2_0 :J5_6_0 :J5_6_1 :J5_8_0 :J5_9_0 :J5_10_0 :J5_11_0 :J5_c0_0"/>
    <junction id=":J5_14_0" type="internal" x="-22.70" y="1.75" incLanes=":J5_6_0" intLanes=":J5_0_0 :J5_0_1 :J5_2_0 :J5_2_1 :J5_9_0 :J5_11_0 :J5_c0_0 :J5_c1_0"/>
    <junction id=":J5_15_0" type="internal" x="-22.70" y="0.49" incLanes=":J5_6_1" intLanes=":J5_0_0 :J5_0_1 :J5_2_0 :J5_2_1 :J5_9_0 :J5_11_0 :J5_c0_0 :J5_c1_0"/>
    <junction id=":J5_16_0" type="internal" x="-25.45" y="-5.01" incLanes=":J5_10_0 A_in_1" intLanes=":J5_2_0 :J5_2_1 :J5_8_0 :J5_9_0 :J5_c0_0 :J5_c1_0"/>
    <junction id=":J7_10_0" type="internal" x="22.70" y="-3.69" incLanes=":J7_2_0" intLanes=":J7_4_0 :J7_6_0 :J7_7_0 :J7_7_1 :J7_9_0 :J7_c0_0 :J7_c1_0"/>
    <junction id=":J7_11_0" type="internal" x="25.45" y="1.81" incLanes=":J7_5_0 C_in_1" intLanes=":J7_3_0 :J7_4_0 :J7_9_0 :J7_c0_0 :J7_c1_0"/>
    <junction id=":J7_12_0" type="internal" x="19.73" y="-1.17" incLanes=":J7_9_0 C_in_1 C_in_2" intLanes=":J7_2_0 :J7_3_0 :J7_4_0 :J7_5_0 :J7_6_0 :J7_c0_0"/>

    <connection from="-E1.174" to="-E1.185" fromLane="1" toLane="1" via=":J9_0_0" dir="s" state="M"/>
    <connection from="-E1.174" to="-E1.185" fromLane="2" toLane="2" disallow="pedestrian bicycle" via=":J9_0_1" dir="s" state="M"/>
    <connection from="-E1.185" to="-E10" fromLane="1" toLane="1" via=":J8_0_0" dir="s" state="M"/>
    <connection from="-E1.185" to="-E10" fromLane="1" toLane="4" via=":J8_0_1" dir="s" state="m"/>
    <connection from="-E1.185" to="-E10" fromLane="2" toLane="2" disallow="pedestrian bicycle" via=":J8_0_2" dir="s" state="M"/>
    <connection from="-E10" to="A_out" fromLane="1" toLane="1" via=":J5_0_0" tl="J5" linkIndex="0" dir="s" state="o"/>
    <connection from="-E10" to="A_out" fromLane="2" toLane="2" disallow="pedestrian bicycle" via=":J5_0_1" tl="J5" linkIndex="1" dir="s" state="o"/>
    <connection from="-E10" to="B_out" fromLane="2" toLane="1" via=":J5_2_0" tl="J5" linkIndex="2" dir="l" state="o"/>
    <connection from="-E10" to="B_out" fromLane="4" toLane="1" via=":J5_2_1" tl="J5" linkIndex="3" dir="l" state="o"/>
    <connection from="A_in" to="B_out" fromLane="1" toLane="1" via=":J5_8_0" tl="J5" linkIndex="8" dir="r" state="o"/>
    <connection from="A_in" to="E1" fromLane="1" toLane="1" via=":J5_9_0" tl="J5" linkIndex="9" dir="s" state="o"/>
    <connection from="A_in" to="B_out" fromLane="2" toLane="1" disallow="pedestrian bicycle" via=":J5_10_0" tl="J5" linkIndex="10" dir="r" state="o"/>
    <connection from="A_in" to="E1" fromLane="2" toLane="2" via=":J5_11_0" tl="J5" linkIndex="11" dir="s" state="o"/>
    <connection from="B_in" to="E1" fromLane="1" toLane="1" via=":J5_4_0" tl="J5" linkIndex="4" dir="r" state="o"/>
    <connection from="B_in" to="E1" fromLane="1" toLane="2" via=":J5_4_1" tl="J5" linkIndex="5" dir="r" state="o"/>