<?xml version="1.0" encoding="UTF-8"?>

<!-- generated on 2025-01-05 10:44:55 by Eclipse SUMO netedit Version 1.19.0
<configuration xmlns:xsi="http://www.w3.org/2001/XMLSchema-instance" xsi:noNamespaceSchemaLocation="http://sumo.dlr.de/xsd/neteditConfiguration.xsd">

    <input>
        <sumo-net-file value="C:\Users\VargaBalazs\Desktop\Projektek\EKOP-multimodal\Scenarios\Scenarios\Variant11_p36v3.net.xml"/>
    </input>

    <output>
        <output-file value="C:\Users\VargaBalazs\Desktop\Projektek\EKOP-multimodal\Scenarios\Scenarios\Variant11_p36v3.net.xml"/>
    </output>

    <processing>
        <geometry.min-radius.fix.railways value="false"/>
        <geometry.max-grade.fix value="false"/>
        <offset.disable-normalization value="true"/>
        <lefthand value="0"/>
    </processing>

    <junctions>
        <no-internal-links value="false"/>
        <no-turnarounds value="true"/>
        <junctions.corner-detail value="5"/>
        <junctions.limit-turn-speed value="5.50"/>
        <rectangular-lane-cut value="0"/>
    </junctions>

    <pedestrian>
        <walkingareas value="0"/>
    </pedestrian>

</configuration>
-->

<net version="1.16" junctionCornerDetail="5" limitTurnSpeed="5.50" xmlns:xsi="http://www.w3.org/2001/XMLSchema-instance" xsi:noNamespaceSchemaLocation="http://sumo.dlr.de/xsd/net_file.xsd">

    <location netOffset="0.00,0.00" convBoundary="-200.00,-200.00,200.00,0.00" origBoundary="-10000000000.00,-10000000000.00,10000000000.00,10000000000.00" projParameter="!"/>

    <edge id=":J0_w0" function="walkingarea">
        <lane id=":J0_w0_0" index="0" allow="pedestrian" speed="2.78" length="21.20" width="2.00" shape="-200.00,-9.60 -200.00,-11.60 -200.00,11.60 -200.00,9.60"/>
    </edge>
    <edge id=":J1_0" function="internal">
        <lane id=":J1_0_0" index="0" disallow="pedestrian" speed="13.89" length="18.60" shape="11.40,8.00 -7.20,8.00"/>
        <lane id=":J1_0_1" index="1" disallow="pedestrian" speed="13.89" length="18.60" shape="11.40,4.80 -7.20,4.80"/>
        <lane id=":J1_0_2" index="2" disallow="pedestrian" speed="13.89" length="18.60" shape="11.40,1.60 -7.20,1.60"/>
    </edge>
    <edge id=":J1_3" function="internal">
        <lane id=":J1_3_0" index="0" disallow="pedestrian" speed="10.00" length="4.32" shape="11.40,1.60 7.14,0.89"/>
    </edge>
    <edge id=":J1_13" function="internal">
        <lane id=":J1_13_0" index="0" disallow="pedestrian" speed="10.00" length="18.44" shape="7.14,0.89 5.71,0.65 1.65,-2.20 -0.79,-6.95 -1.60,-13.60"/>
    </edge>
    <edge id=":J1_4" function="internal">
        <lane id=":J1_4_0" index="0" disallow="pedestrian" speed="6.51" length="4.75" shape="5.80,-13.60 6.15,-11.15 7.20,-9.40 7.40,-9.28"/>
        <lane id=":J1_4_1" index="1" disallow="pedestrian" speed="7.33" length="7.08" shape="5.80,-13.60 6.15,-9.75 7.20,-7.00 7.40,-6.81"/>
    </edge>
    <edge id=":J1_6" function="internal">
        <lane id=":J1_6_0" index="0" allow="bicycle" speed="10.86" length="23.59" width="1.00" shape="3.70,-13.60 3.02,-3.67 0.97,3.42 -2.43,7.68 -3.20,7.91"/>
        <lane id=":J1_6_1" index="1" disallow="pedestrian" speed="9.94" length="18.22" shape="1.60,-13.60 1.05,-5.55 -0.60,0.20 -3.20,3.46"/>
        <lane id=":J1_6_2" index="2" disallow="pedestrian" speed="9.32" length="15.45" shape="1.60,-13.60 1.05,-6.95 -0.60,-2.20 -3.20,0.49"/>
    </edge>
    <edge id=":J1_14" function="internal">
        <lane id=":J1_14_0" index="0" disallow="pedestrian" speed="6.51" length="4.28" shape="7.40,-9.28 8.95,-8.35 11.40,-8.00"/>
    </edge>
    <edge id=":J1_15" function="internal">
        <lane id=":J1_15_0" index="0" disallow="pedestrian" speed="7.33" length="4.64" shape="7.40,-6.81 8.95,-5.35 11.40,-4.80"/>
    </edge>
    <edge id=":J1_16" function="internal">
        <lane id=":J1_16_0" index="0" allow="bicycle" speed="10.86" length="4.17" width="1.00" shape="-3.20,7.91 -7.20,9.10"/>
    </edge>
    <edge id=":J1_17" function="internal">
        <lane id=":J1_17_0" index="0" disallow="pedestrian" speed="9.94" length="4.26" shape="-3.20,3.46 -3.35,3.65 -7.20,4.80"/>
    </edge>
    <edge id=":J1_18" function="internal">
        <lane id=":J1_18_0" index="0" disallow="pedestrian" speed="9.32" length="4.18" shape="-3.20,0.49 -3.35,0.65 -7.20,1.60"/>
    </edge>
    <edge id=":J1_9" function="internal">
        <lane id=":J1_9_0" index="0" disallow="pedestrian" speed="6.51" length="4.75" shape="-7.20,-8.00 -4.75,-8.35 -3.00,-9.40 -2.88,-9.60"/>
    </edge>
    <edge id=":J1_10" function="internal">
        <lane id=":J1_10_0" index="0" disallow="pedestrian" speed="13.89" length="18.60" shape="-7.20,-8.00 11.40,-8.00"/>
        <lane id=":J1_10_1" index="1" disallow="pedestrian" speed="13.89" length="18.60" shape="-7.20,-4.80 11.40,-4.80"/>
        <lane id=":J1_10_2" index="2" disallow="pedestrian" speed="13.89" length="18.60" shape="-7.20,-1.60 11.40,-1.60"/>
    </edge>
    <edge id=":J1_19" function="internal">
        <lane id=":J1_19_0" index="0" disallow="pedestrian" speed="6.51" length="4.28" shape="-2.88,-9.60 -1.95,-11.15 -1.60,-13.60"/>
    </edge>
    <edge id=":J1_c0" function="crossing" crossingEdges="C_out C_in">
        <lane id=":J1_c0_0" index="0" allow="pedestrian" speed="2.78" length="19.20" width="4.00" shape="9.40,-9.60 9.40,9.60"/>
    </edge>
    <edge id=":J1_c1" function="crossing" crossingEdges="B_out -E3.152">
        <lane id=":J1_c1_0" index="0" allow="pedestrian" speed="2.78" length="10.60" width="4.00" shape="-3.20,-11.60 7.40,-11.60"/>
    </edge>
    <edge id=":J1_c2" function="crossing" crossingEdges="A_out A_in">
        <lane id=":J1_c2_0" index="0" allow="pedestrian" speed="2.78" length="19.20" width="4.00" shape="-5.20,9.60 -5.20,-9.60"/>
    </edge>
    <edge id=":J1_w0" function="walkingarea">
        <lane id=":J1_w0_0" index="0" allow="pedestrian" speed="2.78" length="11.82" width="4.00" shape="-3.20,9.60 -7.20,9.60 -7.20,11.60 11.40,11.60 11.40,9.60 7.40,9.60"/>
    </edge>
    <edge id=":J1_w1" function="walkingarea">
        <lane id=":J1_w1_0" index="0" allow="pedestrian" speed="2.78" length="3.30" width="4.00" shape="11.40,-9.60 11.40,-11.60 9.40,-13.60 7.40,-13.60 7.51,-12.38 7.84,-11.38 8.40,-10.60 9.18,-10.04 10.18,-9.71"/>
    </edge>
    <edge id=":J1_w2" function="walkingarea">
        <lane id=":J1_w2_0" index="0" allow="pedestrian" speed="2.78" length="3.30" width="4.00" shape="-3.20,-13.60 -5.20,-13.60 -7.20,-11.60 -7.20,-9.60 -5.98,-9.71 -4.98,-10.04 -4.20,-10.60 -3.64,-11.38 -3.31,-12.38"/>
    </edge>
    <edge id=":J2_w0" function="walkingarea">
        <lane id=":J2_w0_0" index="0" allow="pedestrian" speed="2.78" length="21.20" width="2.00" shape="200.00,9.60 200.00,11.60 200.00,-11.60 200.00,-9.60"/>
    </edge>
    <edge id=":J4_w0" function="walkingarea">
        <lane id=":J4_w0_0" index="0" allow="pedestrian" speed="2.78" length="9.40" width="2.00" shape="4.20,-200.00 6.20,-200.00 -5.20,-200.00 -3.20,-200.00"/>
    </edge>
    <edge id=":J5_0" function="internal">
        <lane id=":J5_0_0" index="0" allow="bicycle" speed="13.89" length="8.45" width="1.00" shape="3.70,-54.00 3.70,-46.00"/>
        <lane id=":J5_0_1" index="1" disallow="pedestrian" speed="13.89" length="8.45" shape="1.60,-54.00 2.26,-51.48 3.70,-50.00 5.14,-48.52 5.80,-46.00"/>
        <lane id=":J5_0_2" index="2" disallow="pedestrian" speed="13.89" length="8.45" shape="1.60,-54.00 1.60,-46.00"/>
    </edge>
    <edge id=":J5_w0" function="walkingarea">
        <lane id=":J5_w0_0" index="0" allow="pedestrian" speed="2.78" length="8.62" width="2.00" shape="7.40,-46.00 9.40,-46.00 6.20,-54.00 4.20,-54.00 4.44,-52.21 5.03,-50.97 5.80,-50.00 6.57,-49.03 7.16,-47.79"/>
    </edge>

    <edge id="-E3.152" from="J5" to="J1" priority="1">
        <lane id="-E3.152_0" index="0" allow="pedestrian" speed="13.89" length="32.40" width="2.00" shape="8.40,-46.00 8.40,-13.60"/>
        <lane id="-E3.152_1" index="1" disallow="pedestrian" speed="13.89" length="32.40" shape="5.80,-46.00 5.80,-13.60"/>
        <lane id="-E3.152_2" index="2" allow="bicycle" speed="13.89" length="32.40" width="1.00" shape="3.70,-46.00 3.70,-13.60"/>
        <lane id="-E3.152_3" index="3" disallow="pedestrian" speed="13.89" length="32.40" shape="1.60,-46.00 1.60,-13.60"/>
    </edge>
    <edge id="A_in" from="J0" to="J1" priority="5">
        <lane id="A_in_0" index="0" allow="pedestrian" speed="13.89" length="192.80" width="2.00" shape="-200.00,-10.60 -7.20,-10.60"/>
        <lane id="A_in_1" index="1" disallow="pedestrian" speed="13.89" length="192.80" shape="-200.00,-8.00 -7.20,-8.00"/>
        <lane id="A_in_2" index="2" disallow="pedestrian" speed="13.89" length="192.80" shape="-200.00,-4.80 -7.20,-4.80"/>
        <lane id="A_in_3" index="3" disallow="pedestrian" speed="13.89" length="192.80" shape="-200.00,-1.60 -7.20,-1.60"/>
    </edge>
    <edge id="A_out" from="J1" to="J0" priority="5">
        <lane id="A_out_0" index="0" allow="pedestrian" speed="13.89" length="192.80" width="2.00" shape="-7.20,10.60 -200.00,10.60"/>
        <lane id="A_out_1" index="1" disallow="pedestrian" speed="13.89" length="192.80" shape="-7.20,8.00 -200.00,8.00"/>
        <lane id="A_out_2" index="2" disallow="pedestrian" speed="13.89" length="192.80" shape="-7.20,4.80 -200.00,4.80"/>
        <lane id="A_out_3" index="3" disallow="pedestrian" speed="13.89" length="192.80" shape="-7.20,1.60 -200.00,1.60"/>
    </edge>
    <edge id="B_in" from="J4" to="J5" priority="1">
        <lane id="B_in_0" index="0" allow="pedestrian" speed="13.89" length="146.00" width="2.00" shape="5.20,-200.00 5.20,-54.00"/>
        <lane id="B_in_1" index="1" allow="bicycle" speed="13.89" length="146.00" width="1.00" shape="3.70,-200.00 3.70,-54.00"/>
        <lane id="B_in_2" index="2" disallow="pedestrian" speed="13.89" length="146.00" shape="1.60,-200.00 1.60,-54.00"/>
    </edge>
    <edge id="B_out" from="J1" to="J4" priority="1">
        <lane id="B_out_0" index="0" allow="pedestrian" speed="13.89" length="186.40" width="2.00" shape="-4.20,-13.60 -4.20,-200.00"/>
        <lane id="B_out_1" index="1" disallow="pedestrian" speed="13.89" length="186.40" shape="-1.60,-13.60 -1.60,-200.00"/>
    </edge>
    <edge id="C_in" from="J2" to="J1" priority="5">
        <lane id="C_in_0" index="0" allow="pedestrian" speed="13.89" length="188.60" width="2.00" shape="200.00,10.60 11.40,10.60"/>
        <lane id="C_in_1" index="1" disallow="pedestrian" speed="13.89" length="188.60" shape="200.00,8.00 11.40,8.00"/>
        <lane id="C_in_2" index="2" disallow="pedestrian" speed="13.89" length="188.60" shape="200.00,4.80 11.40,4.80"/>
        <lane id="C_in_3" index="3" disallow="pedestrian" speed="13.89" length="188.60" shape="200.00,1.60 11.40,1.60"/>
    </edge>
    <edge id="C_out" from="J1" to="J2" priority="5">
        <lane id="C_out_0" index="0" allow="pedestrian" speed="13.89" length="188.60" width="2.00" shape="11.40,-10.60 200.00,-10.60"/>
        <lane id="C_out_1" index="1" disallow="pedestrian" speed="13.89" length="188.60" shape="11.40,-8.00 200.00,-8.00"/>
        <lane id="C_out_2" index="2" disallow="pedestrian" speed="13.89" length="188.60" shape="11.40,-4.80 200.00,-4.80"/>
        <lane id="C_out_3" index="3" disallow="pedestrian" speed="13.89" length="188.60" shape="11.40,-1.60 200.00,-1.60"/>
    </edge>

    <tlLogic id="J1" type="static" programID="0" offset="0">
        <phase duration="37" state="GGGgrrrrrgGGGrGr"/>
        <phase duration="5"  state="GGGgrrrrrgGGGrrr"/>
        <phase duration="3"  state="yyyyrrrrryyyyrrr"/>
        <phase duration="37" state="rrrrgggggrrrrGrG"/>
        <phase duration="5"  state="rrrrgggggrrrrrrr"/>
        <phase duration="3"  state="rrrryyyyyrrrrrrr"/>
    </tlLogic>

    <junction id="J0" type="dead_end" x="-200.00" y="0.00" incLanes="A_out_0 A_out_1 A_out_2 A_out_3" intLanes="" shape="-200.00,0.00 -200.00,11.60 -200.00,0.00"/>
    <junction id="J1" type="traffic_light" x="0.00" y="0.00" incLanes="C_in_0 C_in_1 C_in_2 C_in_3 -E3.152_0 -E3.152_1 -E3.152_2 -E3.152_3 A_in_0 A_in_1 A_in_2 A_in_3 :J1_w1_0 :J1_w2_0 :J1_w0_0" intLanes=":J1_0_0 :J1_0_1 :J1_0_2 :J1_13_0 :J1_14_0 :J1_15_0 :J1_16_0 :J1_17_0 :J1_18_0 :J1_19_0 :J1_10_0 :J1_10_1 :J1_10_2 :J1_c0_0 :J1_c1_0 :J1_c2_0" shape="11.40,11.60 11.40,-11.60 10.29,-11.82 9.90,-12.10 9.62,-12.49 9.46,-12.99 9.40,-13.60 -5.20,-13.60 -5.42,-12.49 -5.70,-12.10 -6.09,-11.82 -6.59,-11.66 -7.20,-11.60 -7.20,11.60">
        <request index="0"  response="1010000111000000" foes="1010000111000000" cont="0"/>
        <request index="1"  response="1010000111000000" foes="1010000111000000" cont="0"/>
        <request index="2"  response="1010000111000000" foes="1010000111000000" cont="0"/>
        <request index="3"  response="0111111111000000" foes="0111111111000000" cont="1"/>
        <request index="4"  response="0111110000000000" foes="0111110000000000" cont="1"/>
        <request index="5"  response="0111110000000000" foes="0111110000000000" cont="1"/>
        <request index="6"  response="1101110000001111" foes="1101110000001111" cont="1"/>
        <request index="7"  response="1101110000001111" foes="1101110000001111" cont="1"/>
        <request index="8"  response="1101110000001111" foes="1101110000001111" cont="1"/>
        <request index="9"  response="1100000000000000" foes="1100000000001000" cont="1"/>
        <request index="10" response="1010000111110000" foes="1010000111111000" cont="0"/>
        <request index="11" response="1010000111110000" foes="1010000111111000" cont="0"/>
        <request index="12" response="1010000111110000" foes="1010000111111000" cont="0"/>
        <request index="13" response="0000000000000000" foes="0001110000111111" cont="0"/>
        <request index="14" response="0000000000000000" foes="0000001111111000" cont="0"/>
        <request index="15" response="0000000000000000" foes="0001111111000111" cont="0"/>
    </junction>
    <junction id="J2" type="dead_end" x="200.00" y="0.00" incLanes="C_out_0 C_out_1 C_out_2 C_out_3" intLanes="" shape="200.00,0.00 200.00,-11.60 200.00,0.00"/>
    <junction id="J4" type="dead_end" x="0.00" y="-200.00" incLanes="B_out_0 B_out_1" intLanes="" shape="0.00,-200.00 -5.20,-200.00 0.00,-200.00"/>
    <junction id="J5" type="priority" x="0.00" y="-50.00" incLanes="B_in_0 B_in_1 B_in_2" intLanes=":J5_0_0 :J5_0_1 :J5_0_2" shape="0.00,-46.00 9.40,-46.00 8.57,-49.03 7.03,-50.97 6.44,-52.21 6.20,-54.00 0.00,-54.00">
        <request index="0" response="000" foes="000" cont="0"/>
        <request index="1" response="000" foes="000" cont="0"/>
        <request index="2" response="000" foes="000" cont="0"/>
    </junction>

    <junction id=":J1_13_0" type="internal" x="7.14" y="0.89" incLanes=":J1_3_0 A_in_1 A_in_2 A_in_3" intLanes=":J1_6_0 :J1_6_1 :J1_6_2 :J1_9_0 :J1_10_0 :J1_10_1 :J1_10_2 :J1_c0_0 :J1_c1_0"/>
    <junction id=":J1_14_0" type="internal" x="7.40" y="-9.28" incLanes=":J1_4_0" intLanes=":J1_10_0 :J1_10_1 :J1_10_2 :J1_c0_0 :J1_c1_0"/>
    <junction id=":J1_15_0" type="internal" x="7.40" y="-6.81" incLanes=":J1_4_1" intLanes=":J1_10_0 :J1_10_1 :J1_10_2 :J1_c0_0 :J1_c1_0"/>
    <junction id=":J1_16_0" type="internal" x="-3.20" y="7.91" incLanes=":J1_6_0" intLanes=":J1_0_0 :J1_0_1 :J1_0_2 :J1_3_0 :J1_10_0 :J1_10_1 :J1_10_2 :J1_c1_0 :J1_c2_0"/>
    <junction id=":J1_17_0" type="internal" x="-3.20" y="3.46" incLanes=":J1_6_1" intLanes=":J1_0_0 :J1_0_1 :J1_0_2 :J1_3_0 :J1_10_0 :J1_10_1 :J1_10_2 :J1_c1_0 :J1_c2_0"/>
    <junction id=":J1_18_0" type="internal" x="-3.20" y="0.49" incLanes=":J1_6_2" intLanes=":J1_0_0 :J1_0_1 :J1_0_2 :J1_3_0 :J1_10_0 :J1_10_1 :J1_10_2 :J1_c1_0 :J1_c2_0"/>
    <junction id=":J1_19_0" type="internal" x="-2.88" y="-9.60" incLanes=":J1_9_0" intLanes=":J1_3_0 :J1_c1_0 :J1_c2_0"/>

    <connection from="-E3.152" to="C_out" fromLane="1" toLane="1" via=":J1_4_0" tl="J1" linkIndex="4" dir="r" state="o"/>
    <connection from="-E3.152" to="C_out" fromLane="1" toLane="2" via=":J1_4_1" tl="J1" linkIndex="5" dir="r" state="o"/>
    <connection from="-E3.152" to="A_out" fromLane="2" toLane="1" via=":J1_6_0" tl="J1" linkIndex="6" dir="l" state="o"/>
    <connection from="-E3.152" to="A_out" fromLane="3" toLane="2" via=":J1_6_1" tl="J1" linkIndex="7" dir="l" state="o"/>
    <connection from="-E3.152" to="A_out" fromLane="3" toLane="3" via=":J1_6_2" tl="J1" linkIndex="8" dir="l" state="o"/>
    <connection from="A_in" to="B_out" fromLane="1" toLane="1" via=":J1_9_0" tl="J1" linkIndex="9" dir="r" state="o"/>
    <connection from="A_in" to="C_out" fromLane="1" toLane="1" via=":J1_10_0" tl="J1" linkIndex="10" dir="s" state="o"/>
    <connection from="A_in" to="C_out" fromLane="2" toLane="2" via=":J1_10_1" tl="J1" linkIndex="11" dir="s" state="o"/>
    <connection from="A_in" to="C_out" fromLane="3" toLane="3" via=":J1_10_2" tl="J1" linkIndex="12" dir="s" state="o"/>
    <connection from="B_in" to="-E3.152" fromLane="1" toLane="2" via=":J5_0_0" dir="s" state="M"/>
    <connection from="B_in" to="-E3.152" fromLane="2" toLane="1" via=":J5_0_1" dir="s" state="M"/>
    <connection from="B_in" to="-E3.152" fromLane="2" toLane="3" via=":J5_0_2" dir="s" state="M"/>
    <connection from="C_in" to="A_out" fromLane="1" toLane="1" via=":J1_0_0" tl="J1" linkIndex="0" dir="s" state="o"/>
    <connection from="C_in" to="A_out" fromLane="2" toLane="2" via=":J1_0_1" tl="J1" linkIndex="1" dir="s" state="o"/>
    <connection from="C_in" to="A_out" fromLane="3" toLane="3" via=":J1_0_2" tl="J1" linkIndex="2" dir="s" state="o"/>
    <connection from="C_in" to="B_out" fromLane="3" toLane="1" via=":J1_3_0" tl="J1" linkIndex="3" dir="l" state="o"/>

    <connection from=":J1_0" to="A_out" fromLane="0" toLane="1" dir="s" state="M"/>
    <connection from=":J1_0" to="A_out" fromLane="1" toLane="2" dir="s" state="M"/>
    <connection from=":J1_0" to="A_out" fromLane="2" toLane="3" dir="s" state="M"/>
    <connection from=":J1_3" to="B_out" fromLane="0" toLane="1" via=":J1_13_0" dir="l" state="m"/>
    <connection from=":J1_13" to="B_out" fromLane="0" toLane="1" dir="l" state="m"/>
    <connection from=":J1_4" to="C_out" fromLane="0" toLane="1" via=":J1_14_0" dir="r" state="m"/>
    <connection from=":J1_14" to="C_out" fromLane="0" toLane="1" dir="r" state="m"/>
    <connection from=":J1_4" to="C_out" fromLane="1" toLane="2" via=":J1_15_0" dir="r" state="m"/>
    <connection from=":J1_15" to="C_out" fromLane="0" toLane="2" dir="r" state="m"/>
    <connection from=":J1_6" to="A_out" fromLane="0" toLane="1" via=":J1_16_0" dir="l" state="m"/>
    <connection from=":J1_16" to="A_out" fromLane="0" toLane="1" dir="l" state="m"/>
    <connection from=":J1_6" to="A_out" fromLane="1" toLane="2" via=":J1_17_0" dir="l" state="m"/>
    <connection from=":J1_17" to="A_out" fromLane="0" toLane="2" dir="l" state="m"/>
    <connection from=":J1_6" to="A_out" fromLane="2" toLane="3" via=":J1_18_0" dir="l" state="m"/>
    <connection from=":J1_18" to="A_out" fromLane="0" toLane="3" dir="l" state="m"/>
    <connection from=":J1_9" to="B_out" fromLane="0" toLane="1" via=":J1_19_0" dir="r" state="m"/>
    <connection from=":J1_19" to="B_out" fromLane="0" toLane="1" dir="r" state="m"/>
    <connection from=":J1_10" to="C_out" fromLane="0" toLane="1" dir="s" state="M"/>
    <connection from=":J1_10" to="C_out" fromLane="1" toLane="2" dir="s" state="M"/>
    <connection from=":J1_10" to="C_out" fromLane="2" toLane="3" dir="s" state="M"/>
    <connection from=":J5_0" to="-E3.152" fromLane="0" toLane="2" dir="s" state="M"/>
    <connection from=":J5_0" to="-E3.152" fromLane="1" toLane="1" dir="s" state="M"/>
    <connection from=":J5_0" to="-E3.152" fromLane="2" toLane="3" dir="s" state="M"/>

    <connection from=":J0_w0" to="A_in" fromLane="0" toLane="0" dir="s" state="M"/>
    <connection from="A_out" to=":J0_w0" fromLane="0" toLane="0" dir="s" state="M"/>
    <connection from=":J1_c0" to=":J1_w0" fromLane="0" toLane="0" dir="s" state="M"/>
    <connection from=":J1_c1" to=":J1_w1" fromLane="0" toLane="0" dir="s" state="M"/>
    <connection from=":J1_c2" to=":J1_w2" fromLane="0" toLane="0" dir="s" state="M"/>
    <connection from=":J1_w0" to=":J1_c2" fromLane="0" toLane="0" tl="J1" linkIndex="15" dir="s" state="M"/>
    <connection from=":J1_w0" to="A_out" fromLane="0" toLane="0" dir="s" state="M"/>
    <connection from="C_in" to=":J1_w0" fromLane="0" toLane="0" dir="s" state="M"/>
    <connection from=":J1_w1" to=":J1_c0" fromLane="0" toLane="0" tl="J1" linkIndex="13" dir="s" state="M"/>
    <connection from=":J1_w1" to="C_out" fromLane="0" toLane="0" dir="s" state="M"/>
    <connection from="-E3.152" to=":J1_w1" fromLane="0" toLane="0" dir="s" state="M"/>
    <connection from=":J1_w2" to=":J1_c1" fromLane="0" toLane="0" tl="J1" linkIndex="14" dir="s" state="M"/>
    <connection from=":J1_w2" to="B_out" fromLane="0" toLane="0" dir="s" state="M"/>
    <connection from="A_in" to=":J1_w2" fromLane="0" toLane="0" dir="s" state="M"/>
    <connection from=":J2_w0" to="C_in" fromLane="0" toLane="0" dir="s" state="M"/>
    <connection from="C_out" to=":J2_w0" fromLane="0" toLane="0" dir="s" state="M"/>
    <connection from=":J4_w0" to="B_in" fromLane="0" toLane="0" dir="s" state="M"/>
    <connection from="B_out" to=":J4_w0" fromLane="0" toLane="0" dir="s" state="M"/>
    <connection from=":J5_w0" to="-E3.152" fromLane="0" toLane="0" dir="s" state="M"/>
    <connection from="B_in" to=":J5_w0" fromLane="0" toLane="0" dir="s" state="M"/>
</net>
