<?xml version="1.0" encoding="UTF-8"?>

<!-- generated on 2025-01-05 10:39:07 by Eclipse SUMO netedit Version 1.19.0
<configuration xmlns:xsi="http://www.w3.org/2001/XMLSchema-instance" xsi:noNamespaceSchemaLocation="http://sumo.dlr.de/xsd/neteditConfiguration.xsd">

    <input>
        <sumo-net-file value="C:\Users\VargaBalazs\Desktop\Projektek\EKOP-multimodal\Scenarios\Scenarios\Variant9_p36v1.net.xml"/>
    </input>

    <output>
        <output-file value="C:\Users\VargaBalazs\Desktop\Projektek\EKOP-multimodal\Scenarios\Scenarios\Variant9_p36v1.net.xml"/>
    </output>

    <processing>
        <geometry.min-radius.fix.railways value="false"/>
        <geometry.max-grade.fix value="false"/>
        <offset.disable-normalization value="true"/>
        <lefthand value="0"/>
    </processing>

    <junctions>
        <no-internal-links value="false"/>
        <no-turnarounds value="true"/>
        <junctions.corner-detail value="5"/>
        <junctions.limit-turn-speed value="5.50"/>
        <rectangular-lane-cut value="0"/>
    </junctions>

    <pedestrian>
        <walkingareas value="0"/>
    </pedestrian>

</configuration>
-->

<net version="1.16" junctionCornerDetail="5" limitTurnSpeed="5.50" xmlns:xsi="http://www.w3.org/2001/XMLSchema-instance" xsi:noNamespaceSchemaLocation="http://sumo.dlr.de/xsd/net_file.xsd">

    <location netOffset="0.00,0.00" convBoundary="-200.00,-200.00,200.00,200.00" origBoundary="-10000000000.00,-10000000000.00,10000000000.00,10000000000.00" projParameter="!"/>

    <edge id=":J0_w0" function="walkingarea">
        <lane id=":J0_w0_0" index="0" allow="pedestrian" speed="2.78" length="14.80" width="2.00" shape="-200.00,-6.40 -200.00,-8.40 -200.00,8.40 -200.00,6.40"/>
    </edge>
    <edge id=":J1_0" function="internal">
        <lane id=":J1_0_0" index="0" disallow="pedestrian" speed="13.89" length="17.60" shape="10.40,4.80 -7.20,4.80"/>
        <lane id=":J1_0_1" index="1" disallow="pedestrian" speed="13.89" length="17.60" shape="10.40,1.60 -7.20,1.60"/>
    </edge>
    <edge id=":J1_2" function="internal">
        <lane id=":J1_2_0" index="0" disallow="pedestrian" speed="9.26" length="5.01" shape="10.40,1.60 5.44,0.89"/>
    </edge>
    <edge id=":J1_10" function="internal">
        <lane id=":J1_10_0" index="0" disallow="pedestrian" speed="9.26" length="14.34" shape="5.44,0.89 5.15,0.85 1.40,-1.40 -0.85,-5.15 -1.60,-10.40"/>
    </edge>
    <edge id=":J1_3" function="internal">
        <lane id=":J1_3_0" index="0" disallow="pedestrian" speed="6.51" length="4.75" shape="4.80,-10.40 5.15,-7.95 6.20,-6.20 6.40,-6.08"/>
        <lane id=":J1_3_1" index="1" disallow="pedestrian" speed="7.33" length="7.08" shape="4.80,-10.40 5.15,-6.55 6.20,-3.80 6.40,-3.61"/>
    </edge>
    <edge id=":J1_5" function="internal">
        <lane id=":J1_5_0" index="0" disallow="pedestrian" speed="9.32" length="15.45" shape="1.60,-10.40 1.05,-3.75 -0.60,1.00 -3.20,3.69"/>
        <lane id=":J1_5_1" index="1" disallow="pedestrian" speed="8.67" length="12.74" shape="1.60,-10.40 1.05,-5.15 -0.60,-1.40 -3.20,0.73"/>
    </edge>
    <edge id=":J1_11" function="internal">
        <lane id=":J1_11_0" index="0" disallow="pedestrian" speed="6.51" length="4.28" shape="6.40,-6.08 7.95,-5.15 10.40,-4.80"/>
    </edge>
    <edge id=":J1_12" function="internal">
        <lane id=":J1_12_0" index="0" disallow="pedestrian" speed="7.33" length="4.64" shape="6.40,-3.61 7.95,-2.15 10.40,-1.60"/>
    </edge>
    <edge id=":J1_13" function="internal">
        <lane id=":J1_13_0" index="0" disallow="pedestrian" speed="9.32" length="4.18" shape="-3.20,3.69 -3.35,3.85 -7.20,4.80"/>
    </edge>
    <edge id=":J1_14" function="internal">
        <lane id=":J1_14_0" index="0" disallow="pedestrian" speed="8.67" length="4.12" shape="-3.20,0.73 -3.35,0.85 -7.20,1.60"/>
    </edge>
    <edge id=":J1_7" function="internal">
        <lane id=":J1_7_0" index="0" disallow="pedestrian" speed="6.51" length="4.75" shape="-7.20,-4.80 -4.75,-5.15 -3.00,-6.20 -2.88,-6.40"/>
    </edge>
    <edge id=":J1_8" function="internal">
        <lane id=":J1_8_0" index="0" disallow="pedestrian" speed="13.89" length="17.60" shape="-7.20,-4.80 10.40,-4.80"/>
        <lane id=":J1_8_1" index="1" disallow="pedestrian" speed="13.89" length="17.60" shape="-7.20,-1.60 10.40,-1.60"/>
    </edge>
    <edge id=":J1_15" function="internal">
        <lane id=":J1_15_0" index="0" disallow="pedestrian" speed="6.51" length="4.28" shape="-2.88,-6.40 -1.95,-7.95 -1.60,-10.40"/>
    </edge>
    <edge id=":J1_c0" function="crossing" crossingEdges="C_out C_in">
        <lane id=":J1_c0_0" index="0" allow="pedestrian" speed="2.78" length="12.80" width="4.00" shape="8.40,-6.40 8.40,6.40"/>
    </edge>
    <edge id=":J1_c1" function="crossing" crossingEdges="B_out -E3.152">
        <lane id=":J1_c1_0" index="0" allow="pedestrian" speed="2.78" length="9.60" width="4.00" shape="-3.20,-8.40 6.40,-8.40"/>
    </edge>
    <edge id=":J1_c2" function="crossing" crossingEdges="A_out A_in">
        <lane id=":J1_c2_0" index="0" allow="pedestrian" speed="2.78" length="12.80" width="4.00" shape="-5.20,6.40 -5.20,-6.40"/>
    </edge>
    <edge id=":J1_w0" function="walkingarea">
        <lane id=":J1_w0_0" index="0" allow="pedestrian" speed="2.78" length="11.16" width="4.00" shape="-3.20,6.40 -7.20,6.40 -7.20,8.40 10.40,8.40 10.40,6.40 6.40,6.40"/>
    </edge>
    <edge id=":J1_w1" function="walkingarea">
        <lane id=":J1_w1_0" index="0" allow="pedestrian" speed="2.78" length="3.30" width="4.00" shape="10.40,-6.40 10.40,-8.40 8.40,-10.40 6.40,-10.40 6.51,-9.18 6.84,-8.18 7.40,-7.40 8.18,-6.84 9.18,-6.51"/>
    </edge>
    <edge id=":J1_w2" function="walkingarea">
        <lane id=":J1_w2_0" index="0" allow="pedestrian" speed="2.78" length="3.30" width="4.00" shape="-3.20,-10.40 -5.20,-10.40 -7.20,-8.40 -7.20,-6.40 -5.98,-6.51 -4.98,-6.84 -4.20,-7.40 -3.64,-8.18 -3.31,-9.18"/>
    </edge>
    <edge id=":J2_w0" function="walkingarea">
        <lane id=":J2_w0_0" index="0" allow="pedestrian" speed="2.78" length="14.80" width="2.00" shape="200.00,6.40 200.00,8.40 200.00,-8.40 200.00,-6.40"/>
    </edge>
    <edge id=":J4_w0" function="walkingarea">
        <lane id=":J4_w0_0" index="0" allow="pedestrian" speed="2.78" length="8.40" width="2.00" shape="3.20,-200.00 5.20,-200.00 -5.20,-200.00 -3.20,-200.00"/>
    </edge>
    <edge id=":J5_0" function="internal">
        <lane id=":J5_0_0" index="0" disallow="pedestrian" speed="13.89" length="8.40" shape="1.60,-54.00 2.10,-51.54 3.20,-50.00 4.30,-48.46 4.80,-46.00"/>
        <lane id=":J5_0_1" index="1" disallow="pedestrian" speed="13.89" length="8.40" shape="1.60,-54.00 1.60,-46.00"/>
    </edge>
    <edge id=":J5_w0" function="walkingarea">
        <lane id=":J5_w0_0" index="0" allow="pedestrian" speed="2.78" length="8.62" width="2.00" shape="6.40,-46.00 8.40,-46.00 5.20,-54.00 3.20,-54.00 3.44,-52.21 4.03,-50.97 4.80,-50.00 5.57,-49.03 6.16,-47.79"/>
    </edge>

    <edge id="-E3.152" from="J5" to="J1" priority="1">
        <lane id="-E3.152_0" index="0" allow="pedestrian" speed="13.89" length="35.60" width="2.00" shape="7.40,-46.00 7.40,-10.40"/>
        <lane id="-E3.152_1" index="1" disallow="pedestrian" speed="13.89" length="35.60" shape="4.80,-46.00 4.80,-10.40"/>
        <lane id="-E3.152_2" index="2" disallow="pedestrian" speed="13.89" length="35.60" shape="1.60,-46.00 1.60,-10.40"/>
    </edge>
    <edge id="A_in" from="J0" to="J1" priority="5">
        <lane id="A_in_0" index="0" allow="pedestrian" speed="13.89" length="192.80" width="2.00" shape="-200.00,-7.40 -7.20,-7.40"/>
        <lane id="A_in_1" index="1" disallow="pedestrian" speed="13.89" length="192.80" shape="-200.00,-4.80 -7.20,-4.80"/>
        <lane id="A_in_2" index="2" disallow="pedestrian" speed="13.89" length="192.80" shape="-200.00,-1.60 -7.20,-1.60"/>
    </edge>
    <edge id="A_out" from="J1" to="J0" priority="5">
        <lane id="A_out_0" index="0" allow="pedestrian" speed="13.89" length="192.80" width="2.00" shape="-7.20,7.40 -200.00,7.40"/>
        <lane id="A_out_1" index="1" disallow="pedestrian" speed="13.89" length="192.80" shape="-7.20,4.80 -200.00,4.80"/>
        <lane id="A_out_2" index="2" disallow="pedestrian" speed="13.89" length="192.80" shape="-7.20,1.60 -200.00,1.60"/>
    </edge>
    <edge id="B_in" from="J4" to="J5" priority="1">
        <lane id="B_in_0" index="0" allow="pedestrian" speed="13.89" length="146.00" width="2.00" shape="4.20,-200.00 4.20,-54.00"/>
        <lane id="B_in_1" index="1" disallow="pedestrian" speed="13.89" length="146.00" shape="1.60,-200.00 1.60,-54.00"/>
    </edge>
    <edge id="B_out" from="J1" to="J4" priority="1">
        <lane id="B_out_0" index="0" allow="pedestrian" speed="13.89" length="189.60" width="2.00" shape="-4.20,-10.40 -4.20,-200.00"/>
        <lane id="B_out_1" index="1" disallow="pedestrian" speed="13.89" length="189.60" shape="-1.60,-10.40 -1.60,-200.00"/>
    </edge>
    <edge id="C_in" from="J2" to="J1" priority="5">
        <lane id="C_in_0" index="0" allow="pedestrian" speed="13.89" length="189.60" width="2.00" shape="200.00,7.40 10.40,7.40"/>
        <lane id="C_in_1" index="1" disallow="pedestrian" speed="13.89" length="189.60" shape="200.00,4.80 10.40,4.80"/>
        <lane id="C_in_2" index="2" disallow="pedestrian" speed="13.89" length="189.60" shape="200.00,1.60 10.40,1.60"/>
    </edge>
    <edge id="C_out" from="J1" to="J2" priority="5">
        <lane id="C_out_0" index="0" allow="pedestrian" speed="13.89" length="189.60" width="2.00" shape="10.40,-7.40 200.00,-7.40"/>
        <lane id="C_out_1" index="1" disallow="pedestrian" speed="13.89" length="189.60" shape="10.40,-4.80 200.00,-4.80"/>
        <lane id="C_out_2" index="2" disallow="pedestrian" speed="13.89" length="189.60" shape="10.40,-1.60 200.00,-1.60"/>
    </edge>

    <tlLogic id="J1" type="static" programID="0" offset="0">
        <phase duration="37" state="GGgrrrrgGGrGr"/>
        <phase duration="5"  state="GGgrrrrgGGrrr"/>
        <phase duration="3"  state="yyyrrrryyyrrr"/>
        <phase duration="37" state="rrrggggrrrGrG"/>
        <phase duration="5"  state="rrrggggrrrrrr"/>
        <phase duration="3"  state="rrryyyyrrrrrr"/>
    </tlLogic>

    <junction id="J0" type="dead_end" x="-200.00" y="0.00" incLanes="A_out_0 A_out_1 A_out_2" intLanes="" shape="-200.00,0.00 -200.00,8.40 -200.00,0.00"/>
    <junction id="J1" type="traffic_light" x="0.00" y="0.00" incLanes="C_in_0 C_in_1 C_in_2 -E3.152_0 -E3.152_1 -E3.152_2 A_in_0 A_in_1 A_in_2 :J1_w1_0 :J1_w2_0 :J1_w0_0" intLanes=":J1_0_0 :J1_0_1 :J1_10_0 :J1_11_0 :J1_12_0 :J1_13_0 :J1_14_0 :J1_15_0 :J1_8_0 :J1_8_1 :J1_c0_0 :J1_c1_0 :J1_c2_0" shape="10.40,8.40 10.40,-8.40 9.29,-8.62 8.90,-8.90 8.62,-9.29 8.46,-9.79 8.40,-10.40 -5.20,-10.40 -5.42,-9.29 -5.70,-8.90 -6.09,-8.62 -6.59,-8.46 -7.20,-8.40 -7.20,8.40">
        <request index="0"  response="1010001100000" foes="1010001100000" cont="0"/>
        <request index="1"  response="1010001100000" foes="1010001100000" cont="0"/>
        <request index="2"  response="0111111100000" foes="0111111100000" cont="1"/>
        <request index="3"  response="0111100000000" foes="0111100000000" cont="1"/>
        <request index="4"  response="0111100000000" foes="0111100000000" cont="1"/>
        <request index="5"  response="1101100000111" foes="1101100000111" cont="1"/>
        <request index="6"  response="1101100000111" foes="1101100000111" cont="1"/>
        <request index="7"  response="1100000000000" foes="1100000000100" cont="1"/>
        <request index="8"  response="1010001111000" foes="1010001111100" cont="0"/>
        <request index="9"  response="1010001111000" foes="1010001111100" cont="0"/>
        <request index="10" response="0000000000000" foes="0001100011111" cont="0"/>
        <request index="11" response="0000000000000" foes="0000011111100" cont="0"/>
        <request index="12" response="0000000000000" foes="0001111100011" cont="0"/>
    </junction>
    <junction id="J2" type="dead_end" x="200.00" y="0.00" incLanes="C_out_0 C_out_1 C_out_2" intLanes="" shape="200.00,0.00 200.00,-8.40 200.00,0.00"/>
    <junction id="J3" type="dead_end" x="0.00" y="200.00" incLanes="" intLanes="" shape="0.00,200.00"/>
    <junction id="J4" type="dead_end" x="0.00" y="-200.00" incLanes="B_out_0 B_out_1" intLanes="" shape="0.00,-200.00 -5.20,-200.00 0.00,-200.00"/>
    <junction id="J5" type="priority" x="0.00" y="-50.00" incLanes="B_in_0 B_in_1" intLanes=":J5_0_0 :J5_0_1" shape="0.00,-46.00 8.40,-46.00 7.57,-49.03 6.03,-50.97 5.44,-52.21 5.20,-54.00 0.00,-54.00">
        <request index="0" response="00" foes="00" cont="0"/>
        <request index="1" response="00" foes="00" cont="0"/>
    </junction>

    <junction id=":J1_10_0" type="internal" x="5.44" y="0.89" incLanes=":J1_2_0 A_in_1 A_in_2" intLanes=":J1_5_0 :J1_5_1 :J1_7_0 :J1_8_0 :J1_8_1 :J1_c0_0 :J1_c1_0"/>
    <junction id=":J1_11_0" type="internal" x="6.40" y="-6.08" incLanes=":J1_3_0" intLanes=":J1_8_0 :J1_8_1 :J1_c0_0 :J1_c1_0"/>
    <junction id=":J1_12_0" type="internal" x="6.40" y="-3.61" incLanes=":J1_3_1" intLanes=":J1_8_0 :J1_8_1 :J1_c0_0 :J1_c1_0"/>
    <junction id=":J1_13_0" type="internal" x="-3.20" y="3.69" incLanes=":J1_5_0" intLanes=":J1_0_0 :J1_0_1 :J1_2_0 :J1_8_0 :J1_8_1 :J1_c1_0 :J1_c2_0"/>
    <junction id=":J1_14_0" type="internal" x="-3.20" y="0.73" incLanes=":J1_5_1" intLanes=":J1_0_0 :J1_0_1 :J1_2_0 :J1_8_0 :J1_8_1 :J1_c1_0 :J1_c2_0"/>
    <junction id=":J1_15_0" type="internal" x="-2.88" y="-6.40" incLanes=":J1_7_0" intLanes=":J1_2_0 :J1_c1_0 :J1_c2_0"/>

    <connection from="-E3.152" to="C_out" fromLane="1" toLane="1" via=":J1_3_0" tl="J1" linkIndex="3" dir="r" state="o"/>
    <connection from="-E3.152" to="C_out" fromLane="1" toLane="2" via=":J1_3_1" tl="J1" linkIndex="4" dir="r" state="o"/>
    <connection from="-E3.152" to="A_out" fromLane="2" toLane="1" via=":J1_5_0" tl="J1" linkIndex="5" dir="l" state="o"/>
    <connection from="-E3.152" to="A_out" fromLane="2" toLane="2" via=":J1_5_1" tl="J1" linkIndex="6" dir="l" state="o"/>
    <connection from="A_in" to="B_out" fromLane="1" toLane="1" via=":J1_7_0" tl="J1" linkIndex="7" dir="r" state="o"/>
    <connection from="A_in" to="C_out" fromLane="1" toLane="1" via=":J1_8_0" tl="J1" linkIndex="8" dir="s" state="o"/>
    <connection from="A_in" to="C_out" fromLane="2" toLane="2" via=":J1_8_1" tl="J1" linkIndex="9" dir="s" state="o"/>
    <connection from="B_in" to="-E3.152" fromLane="1" toLane="1" via=":J5_0_0" dir="s" state="M"/>
    <connection from="B_in" to="-E3.152" fromLane="1" toLane="2" via=":J5_0_1" dir="s" state="M"/>
    <connection from="C_in" to="A_out" fromLane="1" toLane="1" via=":J1_0_0" tl="J1" linkIndex="0" dir="s" state="o"/>
    <connection from="C_in" to="A_out" fromLane="2" toLane="2" via=":J1_0_1" tl="J1" linkIndex="1" dir="s" state="o"/>
    <connection from="C_in" to="B_out" fromLane="2" toLane="1" via=":J1_2_0" tl="J1" linkIndex="2" dir="l" state="o"/>

    <connection from=":J1_0" to="A_out" fromLane="0" toLane="1" dir="s" state="M"/>
    <connection from=":J1_0" to="A_out" fromLane="1" toLane="2" dir="s" state="M"/>
    <connection from=":J1_2" to="B_out" fromLane="0" toLane="1" via=":J1_10_0" dir="l" state="m"/>
    <connection from=":J1_10" to="B_out" fromLane="0" toLane="1" dir="l" state="m"/>
    <connection from=":J1_3" to="C_out" fromLane="0" toLane="1" via=":J1_11_0" dir="r" state="m"/>
    <connection from=":J1_11" to="C_out" fromLane="0" toLane="1" dir="r" state="m"/>
    <connection from=":J1_3" to="C_out" fromLane="1" toLane="2" via=":J1_12_0" dir="r" state="m"/>
    <connection from=":J1_12" to="C_out" fromLane="0" toLane="2" dir="r" state="m"/>
    <connection from=":J1_5" to="A_out" fromLane="0" toLane="1" via=":J1_13_0" dir="l" state="m"/>
    <connection from=":J1_13" to="A_out" fromLane="0" toLane="1" dir="l" state="m"/>
    <connection from=":J1_5" to="A_out" fromLane="1" toLane="2" via=":J1_14_0" dir="l" state="m"/>
    <connection from=":J1_14" to="A_out" fromLane="0" toLane="2" dir="l" state="m"/>
    <connection from=":J1_7" to="B_out" fromLane="0" toLane="1" via=":J1_15_0" dir="r" state="m"/>
    <connection from=":J1_15" to="B_out" fromLane="0" toLane="1" dir="r" state="m"/>
    <connection from=":J1_8" to="C_out" fromLane="0" toLane="1" dir="s" state="M"/>
    <connection from=":J1_8" to="C_out" fromLane="1" toLane="2" dir="s" state="M"/>
    <connection from=":J5_0" to="-E3.152" fromLane="0" toLane="1" dir="s" state="M"/>
    <connection from=":J5_0" to="-E3.152" fromLane="1" toLane="2" dir="s" state="M"/>

    <connection from=":J0_w0" to="A_in" fromLane="0" toLane="0" dir="s" state="M"/>
    <connection from="A_out" to=":J0_w0" fromLane="0" toLane="0" dir="s" state="M"/>
    <connection from=":J1_c0" to=":J1_w0" fromLane="0" toLane="0" dir="s" state="M"/>
    <connection from=":J1_c1" to=":J1_w1" fromLane="0" toLane="0" dir="s" state="M"/>
    <connection from=":J1_c2" to=":J1_w2" fromLane="0" toLane="0" dir="s" state="M"/>
    <connection from=":J1_w0" to=":J1_c2" fromLane="0" toLane="0" tl="J1" linkIndex="12" dir="s" state="M"/>
    <connection from=":J1_w0" to="A_out" fromLane="0" toLane="0" dir="s" state="M"/>
    <connection from="C_in" to=":J1_w0" fromLane="0" toLane="0" dir="s" state="M"/>
    <connection from=":J1_w1" to=":J1_c0" fromLane="0" toLane="0" tl="J1" linkIndex="10" dir="s" state="M"/>
    <connection from=":J1_w1" to="C_out" fromLane="0" toLane="0" dir="s" state="M"/>
    <connection from="-E3.152" to=":J1_w1" fromLane="0" toLane="0" dir="s" state="M"/>
    <connection from=":J1_w2" to=":J1_c1" fromLane="0" toLane="0" tl="J1" linkIndex="11" dir="s" state="M"/>
    <connection from=":J1_w2" to="B_out" fromLane="0" toLane="0" dir="s" state="M"/>
    <connection from="A_in" to=":J1_w2" fromLane="0" toLane="0" dir="s" state="M"/>
    <connection from=":J2_w0" to="C_in" fromLane="0" toLane="0" dir="s" state="M"/>
    <connection from="C_out" to=":J2_w0" fromLane="0" toLane="0" dir="s" state="M"/>
    <connection from=":J4_w0" to="B_in" fromLane="0" toLane="0" dir="s" state="M"/>
    <connection from="B_out" to=":J4_w0" fromLane="0" toLane="0" dir="s" state="M"/>
    <connection from=":J5_w0" to="-E3.152" fromLane="0" toLane="0" dir="s" state="M"/>
    <connection from="B_in" to=":J5_w0" fromLane="0" toLane="0" dir="s" state="M"/>
</net>
