<?xml version="1.0" encoding="UTF-8"?>

<!-- generated on 2025-01-05 10:38:52 by Eclipse SUMO netedit Version 1.19.0
<configuration xmlns:xsi="http://www.w3.org/2001/XMLSchema-instance" xsi:noNamespaceSchemaLocation="http://sumo.dlr.de/xsd/neteditConfiguration.xsd">

    <input>
        <sumo-net-file value="C:\Users\VargaBalazs\Desktop\Projektek\EKOP-multimodal\Scenarios\Scenarios\Variant7_p34v1.net.xml"/>
    </input>

    <output>
        <output-file value="C:\Users\VargaBalazs\Desktop\Projektek\EKOP-multimodal\Scenarios\Scenarios\Variant7_p34v1.net.xml"/>
    </output>

    <processing>
        <geometry.min-radius.fix.railways value="false"/>
        <geometry.max-grade.fix value="false"/>
        <offset.disable-normalization value="true"/>
        <lefthand value="0"/>
    </processing>

    <junctions>
        <no-internal-links value="false"/>
        <no-turnarounds value="true"/>
        <junctions.corner-detail value="5"/>
        <junctions.limit-turn-speed value="5.50"/>
        <rectangular-lane-cut value="0"/>
    </junctions>

    <pedestrian>
        <walkingareas value="0"/>
    </pedestrian>

</configuration>
-->

<net version="1.16" junctionCornerDetail="5" limitTurnSpeed="5.50" xmlns:xsi="http://www.w3.org/2001/XMLSchema-instance" xsi:noNamespaceSchemaLocation="http://sumo.dlr.de/xsd/net_file.xsd">

    <location netOffset="0.00,0.00" convBoundary="-200.00,-200.00,200.00,200.00" origBoundary="-10000000000.00,-10000000000.00,10000000000.00,10000000000.00" projParameter="!"/>

    <edge id=":J0_w0" function="walkingarea">
        <lane id=":J0_w0_0" index="0" allow="pedestrian" speed="2.78" length="25.20" width="2.00" shape="-200.00,-13.60 -200.00,-15.60 -200.00,11.60 -200.00,9.60"/>
    </edge>
    <edge id=":J1_0" function="internal">
        <lane id=":J1_0_0" index="0" disallow="pedestrian" speed="6.51" length="9.03" shape="-1.60,13.60 -1.95,11.15 -3.00,9.40 -4.75,8.35 -7.20,8.00"/>
        <lane id=":J1_0_1" index="1" disallow="pedestrian" speed="7.33" length="11.73" shape="-1.60,13.60 -1.95,9.75 -3.00,7.00 -4.75,5.35 -7.20,4.80"/>
    </edge>
    <edge id=":J1_2" function="internal">
        <lane id=":J1_2_0" index="0" disallow="pedestrian" speed="13.89" length="31.20" shape="-1.60,13.60 -1.60,-17.60"/>
    </edge>
    <edge id=":J1_3" function="internal">
        <lane id=":J1_3_0" index="0" disallow="pedestrian" speed="10.09" length="23.20" shape="-1.60,13.60 -1.05,5.20 0.60,-0.80 3.35,-4.40 7.20,-5.60"/>
    </edge>
    <edge id=":J1_4" function="internal">
        <lane id=":J1_4_0" index="0" disallow="pedestrian" speed="6.51" length="4.75" shape="7.20,8.00 4.75,8.35 3.00,9.40 2.88,9.60"/>
    </edge>
    <edge id=":J1_5" function="internal">
        <lane id=":J1_5_0" index="0" disallow="pedestrian" speed="13.89" length="14.40" shape="7.20,4.80 -7.20,4.80"/>
        <lane id=":J1_5_1" index="1" disallow="pedestrian" speed="13.89" length="14.40" shape="7.20,1.60 -7.20,1.60"/>
    </edge>
    <edge id=":J1_7" function="internal">
        <lane id=":J1_7_0" index="0" disallow="pedestrian" speed="9.48" length="4.52" shape="7.20,-1.60 3.35,-2.60 2.98,-3.00"/>
    </edge>
    <edge id=":J1_16" function="internal">
        <lane id=":J1_16_0" index="0" disallow="pedestrian" speed="6.51" length="4.28" shape="2.88,9.60 1.95,11.15 1.60,13.60"/>
    </edge>
    <edge id=":J1_17" function="internal">
        <lane id=":J1_17_0" index="0" disallow="pedestrian" speed="9.48" length="15.81" shape="2.98,-3.00 0.60,-5.60 -1.05,-10.60 -1.60,-17.60"/>
    </edge>
    <edge id=":J1_8" function="internal">
        <lane id=":J1_8_0" index="0" disallow="pedestrian" speed="6.51" length="9.03" shape="1.60,-17.60 1.95,-15.15 3.00,-13.40 4.75,-12.35 7.20,-12.00"/>
        <lane id=":J1_8_1" index="1" disallow="pedestrian" speed="7.33" length="11.73" shape="1.60,-17.60 1.95,-13.75 3.00,-11.00 4.75,-9.35 7.20,-8.80"/>
    </edge>
    <edge id=":J1_10" function="internal">
        <lane id=":J1_10_0" index="0" disallow="pedestrian" speed="13.89" length="31.20" shape="1.60,-17.60 1.60,13.60"/>
    </edge>
    <edge id=":J1_11" function="internal">
        <lane id=":J1_11_0" index="0" disallow="pedestrian" speed="10.09" length="23.20" shape="1.60,-17.60 1.05,-9.20 -0.60,-3.20 -3.35,0.40 -7.20,1.60"/>
    </edge>
    <edge id=":J1_12" function="internal">
        <lane id=":J1_12_0" index="0" disallow="pedestrian" speed="6.51" length="4.75" shape="-7.20,-12.00 -4.75,-12.35 -3.00,-13.40 -2.88,-13.60"/>
    </edge>
    <edge id=":J1_13" function="internal">
        <lane id=":J1_13_0" index="0" disallow="pedestrian" speed="13.89" length="14.40" shape="-7.20,-8.80 7.20,-8.80"/>
        <lane id=":J1_13_1" index="1" disallow="pedestrian" speed="13.89" length="14.40" shape="-7.20,-5.60 7.20,-5.60"/>
    </edge>
    <edge id=":J1_15" function="internal">
        <lane id=":J1_15_0" index="0" disallow="pedestrian" speed="10.09" length="8.22" shape="-7.20,-5.60 -3.35,-4.40 -0.81,-1.07"/>
    </edge>
    <edge id=":J1_18" function="internal">
        <lane id=":J1_18_0" index="0" disallow="pedestrian" speed="6.51" length="4.28" shape="-2.88,-13.60 -1.95,-15.15 -1.60,-17.60"/>
    </edge>
    <edge id=":J1_19" function="internal">
        <lane id=":J1_19_0" index="0" disallow="pedestrian" speed="10.09" length="14.98" shape="-0.81,-1.07 -0.60,-0.80 1.05,5.20 1.60,13.60"/>
    </edge>
    <edge id=":J1_c0" function="crossing" crossingEdges="D_out D_in">
        <lane id=":J1_c0_0" index="0" allow="pedestrian" speed="2.78" length="6.40" width="4.00" shape="3.20,11.60 -3.20,11.60"/>
    </edge>
    <edge id=":J1_c1" function="crossing" crossingEdges="C_out -E1.158">
        <lane id=":J1_c1_0" index="0" allow="pedestrian" speed="2.78" length="23.20" width="4.00" shape="5.20,-13.60 5.20,9.60"/>
    </edge>
    <edge id=":J1_c2" function="crossing" crossingEdges="B_out B_in">
        <lane id=":J1_c2_0" index="0" allow="pedestrian" speed="2.78" length="6.40" width="4.00" shape="-3.20,-15.60 3.20,-15.60"/>
    </edge>
    <edge id=":J1_c3" function="crossing" crossingEdges="A_out E0.151">
        <lane id=":J1_c3_0" index="0" allow="pedestrian" speed="2.78" length="23.20" width="4.00" shape="-5.20,9.60 -5.20,-13.60"/>
    </edge>
    <edge id=":J1_w0" function="walkingarea">
        <lane id=":J1_w0_0" index="0" allow="pedestrian" speed="2.78" length="3.30" width="4.00" shape="-7.20,9.60 -7.20,11.60 -5.20,13.60 -3.20,13.60 -3.31,12.38 -3.64,11.38 -4.20,10.60 -4.98,10.04 -5.98,9.71"/>
    </edge>
    <edge id=":J1_w1" function="walkingarea">
        <lane id=":J1_w1_0" index="0" allow="pedestrian" speed="2.78" length="3.30" width="4.00" shape="3.20,13.60 5.20,13.60 7.20,11.60 7.20,9.60 5.98,9.71 4.98,10.04 4.20,10.60 3.64,11.38 3.31,12.38"/>
    </edge>
    <edge id=":J1_w2" function="walkingarea">
        <lane id=":J1_w2_0" index="0" allow="pedestrian" speed="2.78" length="3.30" width="4.00" shape="7.20,-13.60 7.20,-15.60 5.20,-17.60 3.20,-17.60 3.31,-16.38 3.64,-15.38 4.20,-14.60 4.98,-14.04 5.98,-13.71"/>
    </edge>
    <edge id=":J1_w3" function="walkingarea">
        <lane id=":J1_w3_0" index="0" allow="pedestrian" speed="2.78" length="3.30" width="4.00" shape="-3.20,-17.60 -5.20,-17.60 -7.20,-15.60 -7.20,-13.60 -5.98,-13.71 -4.98,-14.04 -4.20,-14.60 -3.64,-15.38 -3.31,-16.38"/>
    </edge>
    <edge id=":J2_w0" function="walkingarea">
        <lane id=":J2_w0_0" index="0" allow="pedestrian" speed="2.78" length="25.20" width="2.00" shape="200.00,9.60 200.00,11.60 200.00,-15.60 200.00,-13.60"/>
    </edge>
    <edge id=":J3_w0" function="walkingarea">
        <lane id=":J3_w0_0" index="0" allow="pedestrian" speed="2.78" length="8.40" width="2.00" shape="-3.20,200.00 -5.20,200.00 5.20,200.00 3.20,200.00"/>
    </edge>
    <edge id=":J4_w0" function="walkingarea">
        <lane id=":J4_w0_0" index="0" allow="pedestrian" speed="2.78" length="8.40" width="2.00" shape="3.20,-200.00 5.20,-200.00 -5.20,-200.00 -3.20,-200.00"/>
    </edge>
    <edge id=":J5_0" function="internal">
        <lane id=":J5_0_0" index="0" disallow="pedestrian" speed="13.89" length="1.07" shape="-49.90,-8.80 -49.90,-12.00"/>
        <lane id=":J5_0_1" index="1" disallow="pedestrian" speed="13.89" length="1.07" shape="-49.90,-8.80 -49.90,-8.80"/>
        <lane id=":J5_0_2" index="2" disallow="pedestrian" speed="13.89" length="1.07" shape="-49.90,-5.60 -49.90,-5.60"/>
    </edge>
    <edge id=":J5_w0" function="walkingarea">
        <lane id=":J5_w0_0" index="0" allow="pedestrian" speed="2.78" length="0.10" width="2.00" shape="-49.90,-13.60 -49.90,-15.60 -49.90,-13.60"/>
    </edge>
    <edge id=":J6_0" function="internal">
        <lane id=":J6_0_0" index="0" disallow="pedestrian" speed="13.89" length="3.00" shape="51.50,8.00 48.50,8.00"/>
        <lane id=":J6_0_1" index="1" disallow="pedestrian" speed="13.89" length="3.00" shape="51.50,4.80 48.50,4.80"/>
        <lane id=":J6_0_2" index="2" disallow="pedestrian" speed="13.89" length="3.00" shape="51.50,1.60 48.50,1.60"/>
        <lane id=":J6_0_3" index="3" disallow="pedestrian" speed="13.89" length="3.00" shape="51.50,-1.60 48.50,-1.60"/>
    </edge>
    <edge id=":J6_w0" function="walkingarea">
        <lane id=":J6_w0_0" index="0" allow="pedestrian" speed="2.78" length="3.00" width="2.00" shape="48.50,9.60 48.50,11.60 51.50,11.60 51.50,9.60"/>
    </edge>

    <edge id="-E1.158" from="J6" to="J1" priority="5" shape="50.00,-4.00 0.00,-4.00">
        <lane id="-E1.158_0" index="0" allow="pedestrian" speed="13.89" length="41.30" width="2.00" shape="48.50,10.60 7.20,10.60"/>
        <lane id="-E1.158_1" index="1" disallow="pedestrian" speed="13.89" length="41.30" shape="48.50,8.00 7.20,8.00"/>
        <lane id="-E1.158_2" index="2" disallow="pedestrian" speed="13.89" length="41.30" shape="48.50,4.80 7.20,4.80"/>
        <lane id="-E1.158_3" index="3" disallow="pedestrian" speed="13.89" length="41.30" shape="48.50,1.60 7.20,1.60"/>
        <lane id="-E1.158_4" index="4" disallow="pedestrian" speed="13.89" length="41.30" shape="48.50,-1.60 7.20,-1.60"/>
        <lane id="-E1.158_5" index="5" disallow="all" speed="13.89" length="41.30" width="0.80" shape="48.50,-3.60 7.20,-3.60"/>
    </edge>
    <edge id="A_in" from="J0" to="J5" priority="-1" shape="-200.00,0.00 -50.00,0.00">
        <lane id="A_in_0" index="0" allow="pedestrian" speed="13.89" length="150.08" width="2.00" shape="-200.00,-14.60 -49.90,-14.60"/>
        <lane id="A_in_1" index="1" disallow="pedestrian" speed="13.89" length="150.08" shape="-200.00,-12.00 -49.90,-12.00"/>
        <lane id="A_in_2" index="2" disallow="pedestrian" speed="13.89" length="150.08" shape="-200.00,-8.80 -49.90,-8.80"/>
        <lane id="A_in_3" index="3" disallow="pedestrian" speed="13.89" length="150.08" shape="-200.00,-5.60 -49.90,-5.60"/>
        <lane id="A_in_4" index="4" disallow="all" speed="13.89" length="150.08" width="4.00" shape="-200.00,-2.00 -50.00,-2.00"/>
    </edge>
    <edge id="A_out" from="J1" to="J0" priority="5" shape="0.00,0.00 -47.25,0.00 -200.00,0.00">
        <lane id="A_out_0" index="0" allow="pedestrian" speed="13.89" length="192.80" width="2.00" shape="-7.20,10.60 -47.25,10.60 -200.00,10.60"/>
        <lane id="A_out_1" index="1" disallow="pedestrian" speed="13.89" length="192.80" shape="-7.20,8.00 -47.25,8.00 -200.00,8.00"/>
        <lane id="A_out_2" index="2" disallow="pedestrian" speed="13.89" length="192.80" shape="-7.20,4.80 -47.25,4.80 -200.00,4.80"/>
        <lane id="A_out_3" index="3" disallow="pedestrian" speed="13.89" length="192.80" shape="-7.20,1.60 -47.25,1.60 -200.00,1.60"/>
    </edge>
    <edge id="B_in" from="J4" to="J1" priority="1">
        <lane id="B_in_0" index="0" allow="pedestrian" speed="13.89" length="182.40" width="2.00" shape="4.20,-200.00 4.20,-17.60"/>
        <lane id="B_in_1" index="1" disallow="pedestrian" speed="13.89" length="182.40" shape="1.60,-200.00 1.60,-17.60"/>
    </edge>
    <edge id="B_out" from="J1" to="J4" priority="1">
        <lane id="B_out_0" index="0" allow="pedestrian" speed="13.89" length="182.40" width="2.00" shape="-4.20,-17.60 -4.20,-200.00"/>
        <lane id="B_out_1" index="1" disallow="pedestrian" speed="13.89" length="182.40" shape="-1.60,-17.60 -1.60,-200.00"/>
    </edge>
    <edge id="C_in" from="J2" to="J6" priority="-1" shape="200.00,-4.00 50.00,-4.00">
        <lane id="C_in_0" index="0" allow="pedestrian" speed="13.89" length="148.50" width="2.00" shape="200.00,10.60 51.50,10.60"/>
        <lane id="C_in_1" index="1" disallow="pedestrian" speed="13.89" length="148.50" shape="200.00,8.00 51.50,8.00"/>
        <lane id="C_in_2" index="2" disallow="pedestrian" speed="13.89" length="148.50" shape="200.00,4.80 51.50,4.80"/>
        <lane id="C_in_3" index="3" disallow="pedestrian" speed="13.89" length="148.50" shape="200.00,1.60 51.50,1.60"/>
        <lane id="C_in_4" index="4" disallow="all" speed="13.89" length="148.50" width="4.00" shape="200.00,-2.00 51.50,-2.00"/>
    </edge>
    <edge id="C_out" from="J1" to="J2" priority="5" shape="0.00,-4.00 200.00,-4.00">
        <lane id="C_out_0" index="0" allow="pedestrian" speed="13.89" length="192.80" width="2.00" shape="7.20,-14.60 200.00,-14.60"/>
        <lane id="C_out_1" index="1" disallow="pedestrian" speed="13.89" length="192.80" shape="7.20,-12.00 200.00,-12.00"/>
        <lane id="C_out_2" index="2" disallow="pedestrian" speed="13.89" length="192.80" shape="7.20,-8.80 200.00,-8.80"/>
        <lane id="C_out_3" index="3" disallow="pedestrian" speed="13.89" length="192.80" shape="7.20,-5.60 200.00,-5.60"/>
    </edge>
    <edge id="D_in" from="J3" to="J1" priority="1">
        <lane id="D_in_0" index="0" allow="pedestrian" speed="13.89" length="186.40" width="2.00" shape="-4.20,200.00 -4.20,13.60"/>
        <lane id="D_in_1" index="1" disallow="pedestrian" speed="13.89" length="186.40" shape="-1.60,200.00 -1.60,13.60"/>
    </edge>
    <edge id="D_out" from="J1" to="J3" priority="1">
        <lane id="D_out_0" index="0" allow="pedestrian" speed="13.89" length="186.40" width="2.00" shape="4.20,13.60 4.20,200.00"/>
        <lane id="D_out_1" index="1" disallow="pedestrian" speed="13.89" length="186.40" shape="1.60,13.60 1.60,200.00"/>
    </edge>
    <edge id="E0.151" from="J5" to="J1" priority="5" shape="-50.00,0.00 0.00,0.00">
        <lane id="E0.151_0" index="0" allow="pedestrian" speed="13.89" length="42.72" width="2.00" shape="-49.90,-14.60 -7.20,-14.60"/>
        <lane id="E0.151_1" index="1" disallow="pedestrian" speed="13.89" length="42.72" shape="-49.90,-12.00 -7.20,-12.00"/>
        <lane id="E0.151_2" index="2" disallow="pedestrian" speed="13.89" length="42.72" shape="-49.90,-8.80 -7.20,-8.80"/>
        <lane id="E0.151_3" index="3" disallow="pedestrian" speed="13.89" length="42.72" shape="-49.90,-5.60 -7.20,-5.60"/>
        <lane id="E0.151_4" index="4" disallow="all" speed="13.89" length="42.72" width="4.00" shape="-50.00,-2.00 -7.20,-2.00"/>
    </edge>

    <junction id="J0" type="dead_end" x="-200.00" y="0.00" incLanes="A_out_0 A_out_1 A_out_2 A_out_3" intLanes="" shape="-200.00,-4.00 -200.00,11.60 -200.00,0.00"/>
    <junction id="J1" type="priority" x="0.00" y="0.00" incLanes="D_in_0 D_in_1 -E1.158_0 -E1.158_1 -E1.158_2 -E1.158_3 -E1.158_4 -E1.158_5 B_in_0 B_in_1 E0.151_0 E0.151_1 E0.151_2 E0.151_3 E0.151_4 :J1_w1_0 :J1_w2_0 :J1_w3_0 :J1_w0_0" intLanes=":J1_0_0 :J1_0_1 :J1_2_0 :J1_3_0 :J1_16_0 :J1_5_0 :J1_5_1 :J1_17_0 :J1_8_0 :J1_8_1 :J1_10_0 :J1_11_0 :J1_18_0 :J1_13_0 :J1_13_1 :J1_19_0 :J1_c0_0 :J1_c1_0 :J1_c2_0 :J1_c3_0" shape="-5.20,13.60 5.20,13.60 5.42,12.49 5.70,12.10 6.09,11.82 6.59,11.66 7.20,11.60 7.20,-15.60 6.09,-15.82 5.70,-16.10 5.42,-16.49 5.26,-16.99 5.20,-17.60 -5.20,-17.60 -5.42,-16.49 -5.70,-16.10 -6.09,-15.82 -6.59,-15.66 -7.20,-15.60 -7.20,11.60 -6.09,11.82 -5.70,12.10 -5.42,12.49 -5.26,12.99">
        <request index="0"  response="10000000000001100000" foes="10010000000001100000" cont="0"/>
        <request index="1"  response="10000000000001100000" foes="10010000000001100000" cont="0"/>
        <request index="2"  response="00001111000011100000" foes="01011111100011100000" cont="0"/>
        <request index="3"  response="00101110010011100000" foes="00111110110011100000" cont="0"/>
        <request index="4"  response="00010000000000000000" foes="00111000010000000000" cont="1"/>
        <request index="5"  response="00000000000000000000" foes="10101000110000001111" cont="0"/>
        <request index="6"  response="00000000000000000000" foes="10101000110000001111" cont="0"/>
        <request index="7"  response="01000111000000000000" foes="01100111110000001100" cont="1"/>
        <request index="8"  response="00100110000000000000" foes="01100110000000000000" cont="0"/>
        <request index="9"  response="00100110000000000000" foes="01100110000000000000" cont="0"/>
        <request index="10" response="00001110000011110000" foes="01011110000011111000" cont="0"/>
        <request index="11" response="10001110000011101100" foes="11001110000011101100" cont="0"/>
        <request index="12" response="01000000000000000000" foes="11000000000010000100" cont="1"/>
        <request index="13" response="00000000000000000000" foes="10100000111110001100" cont="0"/>
        <request index="14" response="00000000000000000000" foes="10100000111110001100" cont="0"/>
        <request index="15" response="00010000000001110000" foes="10010000110001111100" cont="1"/>
        <request index="16" response="00000000010000001111" foes="00001000010000011111" cont="0"/>
        <request index="17" response="00000110000011110000" foes="00000110001111111000" cont="0"/>
        <request index="18" response="00000000111100000100" foes="00000001111110000100" cont="0"/>
        <request index="19" response="00001111000001100000" foes="00001111100001100011" cont="0"/>
    </junction>
    <junction id="J2" type="dead_end" x="200.00" y="0.00" incLanes="C_out_0 C_out_1 C_out_2 C_out_3" intLanes="" shape="200.00,-0.00 200.00,-15.60 200.00,-4.00"/>
    <junction id="J3" type="dead_end" x="0.00" y="200.00" incLanes="D_out_0 D_out_1" intLanes="" shape="0.00,200.00 5.20,200.00 0.00,200.00"/>
    <junction id="J4" type="dead_end" x="0.00" y="-200.00" incLanes="B_out_0 B_out_1" intLanes="" shape="0.00,-200.00 -5.20,-200.00 0.00,-200.00"/>
    <junction id="J5" type="priority" x="-49.90" y="0.00" incLanes="A_in_0 A_in_1 A_in_2 A_in_3 A_in_4" intLanes=":J5_0_0 :J5_0_1 :J5_0_2" shape="-49.90,-4.00 -49.90,-15.60 -49.90,-4.00" customShape="1">
        <request index="0" response="000" foes="000" cont="0"/>
        <request index="1" response="000" foes="000" cont="0"/>
        <request index="2" response="000" foes="000" cont="0"/>
    </junction>
    <junction id="J6" type="priority" x="50.00" y="0.00" incLanes="C_in_0 C_in_1 C_in_2 C_in_3 C_in_4" intLanes=":J6_0_0 :J6_0_1 :J6_0_2 :J6_0_3" shape="51.50,11.60 51.50,-0.00 48.50,-3.20 48.50,11.60">
        <request index="0" response="0000" foes="0000" cont="0"/>
        <request index="1" response="0000" foes="0000" cont="0"/>
        <request index="2" response="0000" foes="0000" cont="0"/>
        <request index="3" response="0000" foes="0000" cont="0"/>
    </junction>

    <junction id=":J1_16_0" type="internal" x="2.88" y="9.60" incLanes=":J1_4_0" intLanes=":J1_10_0 :J1_15_0 :J1_c0_0 :J1_c1_0"/>
    <junction id=":J1_17_0" type="internal" x="2.98" y="-3.00" incLanes=":J1_7_0 E0.151_1 E0.151_2 E0.151_3" intLanes=":J1_2_0 :J1_3_0 :J1_10_0 :J1_11_0 :J1_12_0 :J1_13_0 :J1_13_1 :J1_c1_0 :J1_c2_0"/>
    <junction id=":J1_18_0" type="internal" x="-2.88" y="-13.60" incLanes=":J1_12_0" intLanes=":J1_2_0 :J1_7_0 :J1_c2_0 :J1_c3_0"/>
    <junction id=":J1_19_0" type="internal" x="-0.81" y="-1.07" incLanes=":J1_15_0 -E1.158_1 -E1.158_2 -E1.158_3" intLanes=":J1_2_0 :J1_3_0 :J1_4_0 :J1_5_0 :J1_5_1 :J1_10_0 :J1_11_0 :J1_c0_0 :J1_c3_0"/>

    <connection from="-E1.158" to="D_out" fromLane="1" toLane="1" via=":J1_4_0" dir="r" state="m"/>
    <connection from="-E1.158" to="A_out" fromLane="2" toLane="2" via=":J1_5_0" dir="s" state="M"/>
    <connection from="-E1.158" to="A_out" fromLane="3" toLane="3" via=":J1_5_1" dir="s" state="M"/>
    <connection from="-E1.158" to="B_out" fromLane="4" toLane="1" via=":J1_7_0" dir="l" state="m"/>
    <connection from="A_in" to="E0.151" fromLane="2" toLane="1" via=":J5_0_0" dir="s" state="M"/>
    <connection from="A_in" to="E0.151" fromLane="2" toLane="2" via=":J5_0_1" dir="s" state="M"/>
    <connection from="A_in" to="E0.151" fromLane="3" toLane="3" via=":J5_0_2" dir="s" state="M"/>
    <connection from="B_in" to="C_out" fromLane="1" toLane="1" via=":J1_8_0" dir="r" state="m"/>
    <connection from="B_in" to="C_out" fromLane="1" toLane="2" via=":J1_8_1" dir="r" state="m"/>
    <connection from="B_in" to="D_out" fromLane="1" toLane="1" via=":J1_10_0" dir="s" state="m"/>
    <connection from="B_in" to="A_out" fromLane="1" toLane="3" via=":J1_11_0" dir="l" state="m"/>
    <connection from="C_in" to="-E1.158" fromLane="2" toLane="1" via=":J6_0_0" dir="s" state="M"/>
    <connection from="C_in" to="-E1.158" fromLane="2" toLane="2" via=":J6_0_1" dir="s" state="M"/>
    <connection from="C_in" to="-E1.158" fromLane="3" toLane="3" via=":J6_0_2" dir="s" state="M"/>
    <connection from="C_in" to="-E1.158" fromLane="3" toLane="4" via=":J6_0_3" dir="s" state="M"/>
    <connection from="D_in" to="A_out" fromLane="1" toLane="1" via=":J1_0_0" dir="r" state="m"/>
    <connection from="D_in" to="A_out" fromLane="1" toLane="2" via=":J1_0_1" dir="r" state="m"/>
    <connection from="D_in" to="B_out" fromLane="1" toLane="1" via=":J1_2_0" dir="s" state="m"/>
    <connection from="D_in" to="C_out" fromLane="1" toLane="3" via=":J1_3_0" dir="l" state="m"/>
    <connection from="E0.151" to="B_out" fromLane="1" toLane="1" via=":J1_12_0" dir="r" state="m"/>
    <connection from="E0.151" to="C_out" fromLane="2" toLane="2" via=":J1_13_0" dir="s" state="M"/>
    <connection from="E0.151" to="C_out" fromLane="3" toLane="3" via=":J1_13_1" dir="s" state="M"/>
    <connection from="E0.151" to="D_out" fromLane="3" toLane="1" via=":J1_15_0" dir="l" state="m"/>

    <connection from=":J1_0" to="A_out" fromLane="0" toLane="1" dir="r" state="M"/>
    <connection from=":J1_0" to="A_out" fromLane="1" toLane="2" dir="r" state="M"/>
    <connection from=":J1_2" to="B_out" fromLane="0" toLane="1" dir="s" state="M"/>
    <connection from=":J1_3" to="C_out" fromLane="0" toLane="3" dir="l" state="M"/>
    <connection from=":J1_4" to="D_out" fromLane="0" toLane="1" via=":J1_16_0" dir="r" state="m"/>
    <connection from=":J1_16" to="D_out" fromLane="0" toLane="1" dir="r" state="m"/>
    <connection from=":J1_5" to="A_out" fromLane="0" toLane="2" dir="s" state="M"/>
    <connection from=":J1_5" to="A_out" fromLane="1" toLane="3" dir="s" state="M"/>
    <connection from=":J1_7" to="B_out" fromLane="0" toLane="1" via=":J1_17_0" dir="l" state="m"/>
    <connection from=":J1_17" to="B_out" fromLane="0" toLane="1" dir="l" state="m"/>
    <connection from=":J1_8" to="C_out" fromLane="0" toLane="1" dir="r" state="M"/>
    <connection from=":J1_8" to="C_out" fromLane="1" toLane="2" dir="r" state="M"/>
    <connection from=":J1_10" to="D_out" fromLane="0" toLane="1" dir="s" state="M"/>
    <connection from=":J1_11" to="A_out" fromLane="0" toLane="3" dir="l" state="M"/>
    <connection from=":J1_12" to="B_out" fromLane="0" toLane="1" via=":J1_18_0" dir="r" state="m"/>
    <connection from=":J1_18" to="B_out" fromLane="0" toLane="1" dir="r" state="m"/>
    <connection from=":J1_13" to="C_out" fromLane="0" toLane="2" dir="s" state="M"/>
    <connection from=":J1_13" to="C_out" fromLane="1" toLane="3" dir="s" state="M"/>
    <connection from=":J1_15" to="D_out" fromLane="0" toLane="1" via=":J1_19_0" dir="l" state="m"/>
    <connection from=":J1_19" to="D_out" fromLane="0" toLane="1" dir="l" state="m"/>
    <connection from=":J5_0" to="E0.151" fromLane="0" toLane="1" dir="s" state="M"/>
    <connection from=":J5_0" to="E0.151" fromLane="1" toLane="2" dir="s" state="M"/>
    <connection from=":J5_0" to="E0.151" fromLane="2" toLane="3" dir="s" state="M"/>
    <connection from=":J6_0" to="-E1.158" fromLane="0" toLane="1" dir="s" state="M"/>
    <connection from=":J6_0" to="-E1.158" fromLane="1" toLane="2" dir="s" state="M"/>
    <connection from=":J6_0" to="-E1.158" fromLane="2" toLane="3" dir="s" state="M"/>
    <connection from=":J6_0" to="-E1.158" fromLane="3" toLane="4" dir="s" state="M"/>

    <connection from=":J0_w0" to="A_in" fromLane="0" toLane="0" dir="s" state="M"/>
    <connection from="A_out" to=":J0_w0" fromLane="0" toLane="0" dir="s" state="M"/>
    <connection from=":J1_c0" to=":J1_w0" fromLane="0" toLane="0" dir="s" state="M"/>
    <connection from=":J1_c1" to=":J1_w1" fromLane="0" toLane="0" dir="s" state="M"/>
    <connection from=":J1_c2" to=":J1_w2" fromLane="0" toLane="0" dir="s" state="M"/>
    <connection from=":J1_c3" to=":J1_w3" fromLane="0" toLane="0" dir="s" state="M"/>
    <connection from=":J1_w0" to=":J1_c3" fromLane="0" toLane="0" dir="s" state="m"/>
    <connection from=":J1_w0" to="A_out" fromLane="0" toLane="0" dir="s" state="M"/>
    <connection from="D_in" to=":J1_w0" fromLane="0" toLane="0" dir="s" state="M"/>
    <connection from=":J1_w1" to=":J1_c0" fromLane="0" toLane="0" dir="s" state="m"/>
    <connection from=":J1_w1" to="D_out" fromLane="0" toLane="0" dir="s" state="M"/>
    <connection from="-E1.158" to=":J1_w1" fromLane="0" toLane="0" dir="s" state="M"/>
    <connection from=":J1_w2" to=":J1_c1" fromLane="0" toLane="0" dir="s" state="m"/>
    <connection from=":J1_w2" to="C_out" fromLane="0" toLane="0" dir="s" state="M"/>
    <connection from="B_in" to=":J1_w2" fromLane="0" toLane="0" dir="s" state="M"/>
    <connection from=":J1_w3" to=":J1_c2" fromLane="0" toLane="0" dir="s" state="m"/>
    <connection from=":J1_w3" to="B_out" fromLane="0" toLane="0" dir="s" state="M"/>
    <connection from="E0.151" to=":J1_w3" fromLane="0" toLane="0" dir="s" state="M"/>
    <connection from=":J2_w0" to="C_in" fromLane="0" toLane="0" dir="s" state="M"/>
    <connection from="C_out" to=":J2_w0" fromLane="0" toLane="0" dir="s" state="M"/>
    <connection from=":J3_w0" to="D_in" fromLane="0" toLane="0" dir="s" state="M"/>
    <connection from="D_out" to=":J3_w0" fromLane="0" toLane="0" dir="s" state="M"/>
    <connection from=":J4_w0" to="B_in" fromLane="0" toLane="0" dir="s" state="M"/>
    <connection from="B_out" to=":J4_w0" fromLane="0" toLane="0" dir="s" state="M"/>
    <connection from=":J5_w0" to="E0.151" fromLane="0" toLane="0" dir="s" state="M"/>
    <connection from="A_in" to=":J5_w0" fromLane="0" toLane="0" dir="s" state="M"/>
    <connection from=":J6_w0" to="-E1.158" fromLane="0" toLane="0" dir="s" state="M"/>
    <connection from="C_in" to=":J6_w0" fromLane="0" toLane="0" dir="s" state="M"/>
</net>
