<?xml version="1.0" encoding="UTF-8"?>

<!-- generated on 2025-02-05 12:45:20 by Eclipse SUMO netedit Version 1.21.0
<neteditConfiguration xmlns:xsi="http://www.w3.org/2001/XMLSchema-instance" xsi:noNamespaceSchemaLocation="http://sumo.dlr.de/xsd/neteditConfiguration.xsd">

    <input>
        <sumocfg-file value="C:\Users\Ali Rockaya\Desktop\Random\5\5.sumocfg"/>
        <additional-files value="C:\Users\Ali Rockaya\Desktop\Random\5\5.add.xml"/>
        <route-files value="C:\Users\Ali Rockaya\Desktop\Random\5\5.rou.xml"/>
        <data-files value="C:\Users\Ali Rockaya\Desktop\Random\5\5.dat.xml"/>
        <sumo-net-file value="C:\Users\Ali Rockaya\Desktop\Random\5\Variant5_p32v1.net.xml"/>
    </input>

    <output>
        <output-file value="C:\Users\Ali Rockaya\Desktop\Random\5\Variant5_p32v1.net.xml"/>
    </output>

    <processing>
        <geometry.min-radius.fix.railways value="false"/>
        <geometry.max-grade.fix value="false"/>
        <offset.disable-normalization value="true"/>
        <lefthand value="0"/>
    </processing>

    <junctions>
        <no-internal-links value="false"/>
        <no-turnarounds value="true"/>
        <junctions.corner-detail value="5"/>
        <junctions.limit-turn-speed value="5.50"/>
        <rectangular-lane-cut value="0"/>
    </junctions>

    <pedestrian>
        <walkingareas value="0"/>
    </pedestrian>

</neteditConfiguration>
-->

<net version="1.20" junctionCornerDetail="5" limitTurnSpeed="5.50" xmlns:xsi="http://www.w3.org/2001/XMLSchema-instance" xsi:noNamespaceSchemaLocation="http://sumo.dlr.de/xsd/net_file.xsd">

    <location netOffset="0.00,0.00" convBoundary="-200.00,-150.00,200.00,150.00" origBoundary="-10000000000.00,-10000000000.00,10000000000.00,10000000000.00" projParameter="!"/>

    <type id="edgeType_0"/>

    <edge id=":J0_0" function="internal">
        <lane id=":J0_0_0" index="0" allow="pedestrian" speed="12.86" length="25.17" width="2.00" shape="2.84,21.82 -0.57,14.55 -5.29,9.35 -11.30,6.24 -14.61,5.77"/>
        <lane id=":J0_0_1" index="1" allow="bicycle" speed="13.33" length="27.05" width="1.00" shape="4.27,21.34 0.63,13.62 -4.39,8.11 -10.81,4.80 -14.61,4.27"/>
        <lane id=":J0_0_2" index="2" disallow="pedestrian bicycle" speed="13.75" length="29.08" shape="5.31,20.99 1.39,12.51 -3.90,6.45 -10.57,2.81 -14.61,2.20"/>
    </edge>
    <edge id=":J0_3" function="internal">
        <lane id=":J0_3_0" index="0" disallow="pedestrian" speed="13.89" length="43.24" shape="5.31,20.99 -8.36,-20.03"/>
    </edge>
    <edge id=":J0_4" function="internal">
        <lane id=":J0_4_0" index="0" allow="bicycle" speed="10.88" length="11.17" width="1.00" shape="6.36,20.65 4.12,10.78 4.24,9.73"/>
        <lane id=":J0_4_1" index="1" disallow="pedestrian bicycle" speed="10.68" length="5.90" shape="5.31,20.99 4.13,15.21"/>
    </edge>
    <edge id=":J0_26" function="internal">
        <lane id=":J0_26_0" index="0" allow="pedestrian" speed="12.86" length="4.04" width="2.00" shape="-14.61,5.77 -18.61,5.20"/>
    </edge>
    <edge id=":J0_27" function="internal">
        <lane id=":J0_27_0" index="0" allow="bicycle" speed="13.33" length="4.04" width="1.00" shape="-14.61,4.27 -18.61,3.70"/>
    </edge>
    <edge id=":J0_28" function="internal">
        <lane id=":J0_28_0" index="0" disallow="pedestrian bicycle" speed="13.75" length="4.05" shape="-14.61,2.20 -18.61,1.60"/>
    </edge>
    <edge id=":J0_29" function="internal">
        <lane id=":J0_29_0" index="0" allow="bicycle" speed="10.88" length="22.65" width="1.00" shape="4.24,9.73 5.00,3.09 9.63,-1.92 18.60,-3.70"/>
    </edge>
    <edge id=":J0_30" function="internal">
        <lane id=":J0_30_0" index="0" disallow="pedestrian bicycle" speed="10.68" length="26.63" shape="4.13,15.21 3.40,11.64 4.77,4.52 9.73,-0.01 18.60,-1.60"/>
    </edge>
    <edge id=":J0_6" function="internal">
        <lane id=":J0_6_0" index="0" allow="pedestrian" speed="7.69" length="12.64" width="2.00" shape="18.60,8.31 13.84,9.01 10.96,11.05 9.95,14.43 10.09,15.19"/>
        <lane id=":J0_6_1" index="1" disallow="pedestrian bicycle" speed="8.87" length="17.90" shape="18.60,5.71 12.34,6.63 8.54,9.31 7.21,13.76 7.62,16.01"/>
        <lane id=":J0_6_2" index="2" allow="bicycle" speed="8.90" length="18.97" width="1.00" shape="18.60,3.61 12.58,4.64 9.03,7.65 7.97,12.65 8.59,15.69"/>
    </edge>
    <edge id=":J0_9" function="internal">
        <lane id=":J0_9_0" index="0" allow="bicycle" speed="13.89" length="37.21" width="1.00" shape="18.60,3.61 -18.61,3.70"/>
    </edge>
    <edge id=":J0_10" function="internal">
        <lane id=":J0_10_0" index="0" allow="bicycle" speed="13.89" length="12.84" width="1.00" shape="18.60,3.61 9.27,2.19 6.30,0.53"/>
    </edge>
    <edge id=":J0_11" function="internal">
        <lane id=":J0_11_0" index="0" disallow="pedestrian bicycle" speed="13.89" length="37.21" shape="18.60,1.51 -18.61,1.60"/>
    </edge>
    <edge id=":J0_12" function="internal">
        <lane id=":J0_12_0" index="0" disallow="pedestrian bicycle" speed="13.89" length="4.32" shape="18.60,1.51 14.32,0.89"/>
    </edge>
    <edge id=":J0_31" function="internal">
        <lane id=":J0_31_0" index="0" allow="pedestrian" speed="7.69" length="4.04" width="2.00" shape="10.09,15.19 10.81,19.16"/>
    </edge>
    <edge id=":J0_32" function="internal">
        <lane id=":J0_32_0" index="0" disallow="pedestrian bicycle" speed="8.87" length="4.04" shape="7.62,16.01 8.35,19.98"/>
    </edge>
    <edge id=":J0_33" function="internal">
        <lane id=":J0_33_0" index="0" allow="bicycle" speed="8.90" length="4.03" width="1.00" shape="8.59,15.69 9.39,19.63"/>
    </edge>
    <edge id=":J0_34" function="internal">
        <lane id=":J0_34_0" index="0" allow="bicycle" speed="13.89" length="26.33" width="1.00" shape="6.30,0.53 1.49,-2.16 -4.73,-9.45 -9.41,-19.68"/>
    </edge>
    <edge id=":J0_35" function="internal">
        <lane id=":J0_35_0" index="0" disallow="pedestrian bicycle" speed="13.89" length="32.82" shape="14.32,0.89 9.51,0.20 1.98,-3.83 -3.97,-10.57 -8.36,-20.03"/>
    </edge>
    <edge id=":J0_13" function="internal">
        <lane id=":J0_13_0" index="0" allow="pedestrian" speed="12.87" length="25.19" width="2.00" shape="-2.86,-21.86 0.56,-14.57 5.28,-9.36 11.29,-6.24 14.60,-5.77"/>
        <lane id=":J0_13_1" index="1" allow="bicycle" speed="13.33" length="27.08" width="1.00" shape="-4.28,-21.39 -0.64,-13.65 4.39,-8.12 10.80,-4.81 14.60,-4.27"/>
        <lane id=":J0_13_2" index="2" disallow="pedestrian bicycle" speed="13.75" length="29.11" shape="-5.33,-21.04 -1.40,-12.53 3.90,-6.46 10.56,-2.81 14.60,-2.20"/>
    </edge>
    <edge id=":J0_16" function="internal">
        <lane id=":J0_16_0" index="0" disallow="pedestrian" speed="13.89" length="43.24" shape="-5.33,-21.04 8.35,19.98"/>
    </edge>
    <edge id=":J0_17" function="internal">
        <lane id=":J0_17_0" index="0" allow="bicycle" speed="10.89" length="11.19" width="1.00" shape="-6.37,-20.69 -4.13,-10.81 -4.25,-9.76"/>
        <lane id=":J0_17_1" index="1" disallow="pedestrian bicycle" speed="10.69" length="5.91" shape="-5.33,-21.04 -4.14,-15.24"/>
    </edge>
    <edge id=":J0_36" function="internal">
        <lane id=":J0_36_0" index="0" allow="pedestrian" speed="12.87" length="4.04" width="2.00" shape="14.60,-5.77 18.60,-5.20"/>
    </edge>
    <edge id=":J0_37" function="internal">
        <lane id=":J0_37_0" index="0" allow="bicycle" speed="13.33" length="4.04" width="1.00" shape="14.60,-4.27 18.60,-3.70"/>
    </edge>
    <edge id=":J0_38" function="internal">
        <lane id=":J0_38_0" index="0" disallow="pedestrian bicycle" speed="13.75" length="4.04" shape="14.60,-2.20 18.60,-1.60"/>
    </edge>
    <edge id=":J0_39" function="internal">
        <lane id=":J0_39_0" index="0" allow="bicycle" speed="10.89" length="22.68" width="1.00" shape="-4.25,-9.76 -5.01,-3.10 -9.63,1.91 -18.61,3.70"/>
    </edge>
    <edge id=":J0_40" function="internal">
        <lane id=":J0_40_0" index="0" disallow="pedestrian bicycle" speed="10.69" length="26.66" shape="-4.14,-15.24 -3.41,-11.66 -4.77,-4.53 -9.74,0.01 -18.61,1.60"/>
    </edge>
    <edge id=":J0_19" function="internal">
        <lane id=":J0_19_0" index="0" allow="pedestrian" speed="7.68" length="12.62" width="2.00" shape="-18.61,-8.40 -13.86,-9.08 -10.97,-11.10 -9.96,-14.48 -10.10,-15.23"/>
        <lane id=":J0_19_1" index="1" disallow="pedestrian bicycle" speed="8.85" length="17.89" shape="-18.61,-5.80 -12.35,-6.69 -8.55,-9.36 -7.22,-13.80 -7.64,-16.05"/>
        <lane id=":J0_19_2" index="2" allow="bicycle" speed="8.88" length="18.96" width="1.00" shape="-18.61,-3.70 -12.59,-4.70 -9.04,-7.69 -7.98,-12.69 -8.60,-15.73"/>
    </edge>
    <edge id=":J0_22" function="internal">
        <lane id=":J0_22_0" index="0" allow="bicycle" speed="13.89" length="37.21" width="1.00" shape="-18.61,-3.70 18.60,-3.70"/>
    </edge>
    <edge id=":J0_23" function="internal">
        <lane id=":J0_23_0" index="0" allow="bicycle" speed="13.89" length="12.89" width="1.00" shape="-18.61,-3.70 -9.28,-2.24 -6.28,-0.56"/>
    </edge>
    <edge id=":J0_24" function="internal">
        <lane id=":J0_24_0" index="0" disallow="pedestrian bicycle" speed="13.89" length="37.21" shape="-18.61,-1.60 18.60,-1.60"/>
    </edge>
    <edge id=":J0_25" function="internal">
        <lane id=":J0_25_0" index="0" disallow="pedestrian bicycle" speed="13.89" length="4.76" shape="-18.61,-1.60 -13.91,-0.90"/>
    </edge>
    <edge id=":J0_41" function="internal">
        <lane id=":J0_41_0" index="0" allow="pedestrian" speed="7.68" length="4.04" width="2.00" shape="-10.10,-15.23 -10.83,-19.20"/>
    </edge>
    <edge id=":J0_42" function="internal">
        <lane id=":J0_42_0" index="0" disallow="pedestrian bicycle" speed="8.85" length="4.04" shape="-7.64,-16.05 -8.36,-20.03"/>
    </edge>
    <edge id=":J0_43" function="internal">
        <lane id=":J0_43_0" index="0" allow="bicycle" speed="8.88" length="4.03" width="1.00" shape="-8.60,-15.73 -9.41,-19.68"/>
    </edge>
    <edge id=":J0_44" function="internal">
        <lane id=":J0_44_0" index="0" allow="bicycle" speed="13.89" length="26.30" width="1.00" shape="-6.28,-0.56 -1.50,2.13 4.72,9.43 9.39,19.63"/>
    </edge>
    <edge id=":J0_45" function="internal">
        <lane id=":J0_45_0" index="0" disallow="pedestrian bicycle" speed="13.89" length="32.39" shape="-13.91,-0.90 -9.52,-0.25 -1.99,3.80 3.96,10.54 8.35,19.98"/>
    </edge>
    <edge id=":J0_c0" function="crossing" crossingEdges="D_out D_in">
        <lane id=":J0_c0_0" index="0" allow="pedestrian" speed="2.78" length="6.40" width="4.00" shape="9.23,17.58 3.16,19.60" outlineShape="9.87,19.48 3.79,21.50 2.24,17.80 8.99,15.55 8.99,15.78"/>
    </edge>
    <edge id=":J0_c1" function="crossing" crossingEdges="C_out -E1.138">
        <lane id=":J0_c1_0" index="0" allow="pedestrian" speed="2.78" length="11.52" width="4.00" shape="16.60,-4.20 16.61,7.32" outlineShape="18.60,-4.20 18.61,7.32 18.60,7.42 18.60,7.31 14.82,7.66 14.61,7.74 14.60,-4.57"/>
    </edge>
    <edge id=":J0_c2" function="crossing" crossingEdges="B_out B_in">
        <lane id=":J0_c2_0" index="0" allow="pedestrian" speed="2.78" length="6.40" width="4.00" shape="-9.25,-17.62 -3.18,-19.65" outlineShape="-9.88,-19.52 -3.81,-21.54 -2.25,-17.85 -9.00,-15.59 -9.00,-15.82"/>
    </edge>
    <edge id=":J0_c3" function="crossing" crossingEdges="A_out -E0.112">
        <lane id=":J0_c3_0" index="0" allow="pedestrian" speed="2.78" length="11.60" width="4.00" shape="-16.61,4.20 -16.61,-7.40" outlineShape="-18.61,4.20 -18.61,-7.50 -14.82,-7.74 -14.61,-7.81 -14.61,4.57"/>
    </edge>
    <edge id=":J0_w0" function="walkingarea">
        <lane id=":J0_w0_0" index="0" allow="pedestrian" speed="2.78" length="18.17" width="4.00" shape="-18.61,4.20 -18.61,6.20 1.90,22.13 3.79,21.50 1.57,16.21 -1.26,11.89 -4.69,8.53 -8.73,6.12 -13.37,4.68"/>
    </edge>
    <edge id=":J0_w1" function="walkingarea">
        <lane id=":J0_w1_0" index="0" allow="pedestrian" speed="2.78" length="9.47" width="4.00" shape="9.87,19.48 11.76,18.84 18.61,9.31 18.60,7.31 14.82,7.66 11.96,8.69 10.03,10.38 9.04,12.74 8.99,15.78"/>
    </edge>
    <edge id=":J0_w2" function="walkingarea">
        <lane id=":J0_w2_0" index="0" allow="pedestrian" speed="2.78" length="18.19" width="4.00" shape="18.60,-4.20 18.60,-6.20 -1.91,-22.18 -3.81,-21.54 -1.58,-16.24 1.25,-11.91 4.68,-8.54 8.72,-6.13 13.36,-4.68"/>
    </edge>
    <edge id=":J0_w3" function="walkingarea">
        <lane id=":J0_w3_0" index="0" allow="pedestrian" speed="2.78" length="9.45" width="4.00" shape="-9.88,-19.52 -11.78,-18.89 -18.61,-9.40 -18.61,-7.40 -14.82,-7.74 -11.97,-8.75 -10.04,-10.43 -9.05,-12.79 -9.00,-15.82"/>
    </edge>
    <edge id=":J1_w0" function="walkingarea">
        <lane id=":J1_w0_0" index="0" allow="pedestrian" speed="2.78" length="10.40" width="2.00" shape="-200.00,-4.20 -200.00,-6.20 -200.00,6.20 -200.00,4.20"/>
    </edge>
    <edge id=":J2_w0" function="walkingarea">
        <lane id=":J2_w0_0" index="0" allow="pedestrian" speed="2.78" length="10.40" width="2.00" shape="199.99,4.20 199.99,6.20 200.00,-6.20 200.00,-4.20"/>
    </edge>
    <edge id=":J3_w0" function="walkingarea">
        <lane id=":J3_w0_0" index="0" allow="pedestrian" speed="2.78" length="8.40" width="2.00" shape="-46.96,-151.01 -45.07,-151.64 -54.93,-148.36 -53.04,-148.99"/>
    </edge>
    <edge id=":J4_w0" function="walkingarea">
        <lane id=":J4_w0_0" index="0" allow="pedestrian" speed="2.78" length="8.40" width="2.00" shape="46.96,151.01 45.07,151.64 54.93,148.36 53.04,148.99"/>
    </edge>
    <edge id=":J6_0" function="internal">
        <lane id=":J6_0_0" index="0" allow="bicycle" speed="13.89" length="8.45" width="1.00" shape="-64.00,-3.70 -56.00,-3.70"/>
        <lane id=":J6_0_1" index="1" disallow="pedestrian bicycle" speed="13.89" length="8.45" shape="-64.00,-1.60 -61.48,-2.26 -60.00,-3.70 -58.52,-5.14 -56.00,-5.80"/>
        <lane id=":J6_0_2" index="2" disallow="pedestrian bicycle" speed="13.89" length="8.45" shape="-64.00,-1.60 -56.00,-1.60"/>
    </edge>
    <edge id=":J6_w0" function="walkingarea">
        <lane id=":J6_w0_0" index="0" allow="pedestrian" speed="2.78" length="8.62" width="2.00" shape="-56.00,-7.40 -56.00,-9.40 -64.00,-6.20 -64.00,-4.20 -62.21,-4.44 -60.97,-5.03 -60.00,-5.80 -59.03,-6.57 -57.79,-7.16"/>
    </edge>
    <edge id=":J7_0" function="internal">
        <lane id=":J7_0_0" index="0" allow="bicycle" speed="13.89" length="8.45" width="1.00" shape="67.63,3.39 59.63,3.40"/>
        <lane id=":J7_0_1" index="1" disallow="pedestrian bicycle" speed="13.89" length="8.45" shape="67.63,1.29 65.11,1.94 63.64,3.38 62.16,4.83 59.64,5.50"/>
        <lane id=":J7_0_2" index="2" disallow="pedestrian bicycle" speed="13.89" length="8.45" shape="67.63,1.29 59.62,1.30"/>
    </edge>
    <edge id=":J7_w0" function="walkingarea">
        <lane id=":J7_w0_0" index="0" allow="pedestrian" speed="2.78" length="8.59" width="2.00" shape="59.65,7.10 59.66,9.10 67.62,5.89 67.63,3.89 65.84,4.12 64.60,4.71 63.64,5.48 62.67,6.26 61.43,6.85"/>
    </edge>

    <edge id="-E0.112" from="J6" to="J0" priority="10">
        <lane id="-E0.112_0" index="0" allow="pedestrian" speed="13.89" length="37.39" width="2.00" shape="-56.00,-8.40 -18.61,-8.40"/>
        <lane id="-E0.112_1" index="1" disallow="pedestrian bicycle" speed="13.89" length="37.39" shape="-56.00,-5.80 -18.61,-5.80"/>
        <lane id="-E0.112_2" index="2" allow="bicycle" speed="13.89" length="37.39" width="1.00" shape="-56.00,-3.70 -18.61,-3.70"/>
        <lane id="-E0.112_3" index="3" disallow="pedestrian bicycle" speed="13.89" length="37.39" shape="-56.00,-1.60 -18.61,-1.60"/>
    </edge>
    <edge id="-E1.138" from="J7" to="J0" priority="10">
        <lane id="-E1.138_0" index="0" allow="pedestrian" speed="13.89" length="41.03" width="2.00" shape="59.65,8.10 18.60,8.31"/>
        <lane id="-E1.138_1" index="1" disallow="pedestrian bicycle" speed="13.89" length="41.03" shape="59.64,5.50 18.60,5.71"/>
        <lane id="-E1.138_2" index="2" allow="bicycle" speed="13.89" length="41.03" width="1.00" shape="59.63,3.40 18.60,3.61"/>
        <lane id="-E1.138_3" index="3" disallow="pedestrian bicycle" speed="13.89" length="41.03" shape="59.62,1.30 18.60,1.51"/>
    </edge>
    <edge id="A_in" from="J1" to="J6" priority="-1">
        <lane id="A_in_0" index="0" allow="pedestrian" speed="13.89" length="136.00" width="2.00" shape="-200.00,-5.20 -64.00,-5.20"/>
        <lane id="A_in_1" index="1" allow="bicycle" speed="13.89" length="136.00" width="1.00" shape="-200.00,-3.70 -64.00,-3.70"/>
        <lane id="A_in_2" index="2" disallow="pedestrian bicycle" speed="13.89" length="136.00" shape="-200.00,-1.60 -64.00,-1.60"/>
    </edge>
    <edge id="A_out" from="J0" to="J1" priority="10">
        <lane id="A_out_0" index="0" allow="pedestrian" speed="13.89" length="181.39" width="2.00" shape="-18.61,5.20 -200.00,5.20"/>
        <lane id="A_out_1" index="1" allow="bicycle" speed="13.89" length="181.39" width="1.00" shape="-18.61,3.70 -200.00,3.70"/>
        <lane id="A_out_2" index="2" disallow="pedestrian bicycle" speed="13.89" length="181.39" shape="-18.61,1.60 -200.00,1.60"/>
    </edge>
    <edge id="B_in" from="J3" to="J0" priority="1">
        <lane id="B_in_0" index="0" allow="pedestrian" speed="13.89" length="136.47" width="2.00" shape="-46.02,-151.33 -2.86,-21.86"/>
        <lane id="B_in_1" index="1" disallow="pedestrian" speed="13.89" length="136.47" shape="-48.48,-150.51 -5.33,-21.04"/>
    </edge>
    <edge id="B_out" from="J0" to="J3" priority="1">
        <lane id="B_out_0" index="0" allow="pedestrian" speed="13.89" length="136.47" width="2.00" shape="-10.83,-19.20 -53.98,-148.67"/>
        <lane id="B_out_1" index="1" disallow="pedestrian" speed="13.89" length="136.47" shape="-8.36,-20.03 -51.52,-149.49"/>
    </edge>
    <edge id="C_in" from="J2" to="J7" priority="-1">
        <lane id="C_in_0" index="0" allow="pedestrian" speed="13.89" length="132.36" width="2.00" shape="199.99,5.20 67.62,4.89"/>
        <lane id="C_in_1" index="1" allow="bicycle" speed="13.89" length="132.36" width="1.00" shape="199.99,3.70 67.63,3.39"/>
        <lane id="C_in_2" index="2" disallow="pedestrian bicycle" speed="13.89" length="132.36" shape="200.00,1.60 67.63,1.29"/>
    </edge>
    <edge id="C_out" from="J0" to="J2" priority="10">
        <lane id="C_out_0" index="0" allow="pedestrian" speed="13.89" length="181.40" width="2.00" shape="18.60,-5.20 200.00,-5.20"/>
        <lane id="C_out_1" index="1" allow="bicycle" speed="13.89" length="181.40" width="1.00" shape="18.60,-3.70 200.00,-3.70"/>
        <lane id="C_out_2" index="2" disallow="pedestrian bicycle" speed="13.89" length="181.40" shape="18.60,-1.60 200.00,-1.60"/>
    </edge>
    <edge id="D_in" from="J4" to="J0" priority="1">
        <lane id="D_in_0" index="0" allow="pedestrian" speed="13.89" length="136.52" width="2.00" shape="46.02,151.33 2.84,21.82"/>
        <lane id="D_in_1" index="1" disallow="pedestrian" speed="13.89" length="136.52" shape="48.48,150.51 5.31,20.99"/>
    </edge>
    <edge id="D_out" from="J0" to="J4" priority="1">
        <lane id="D_out_0" index="0" allow="pedestrian" speed="13.89" length="136.52" width="2.00" shape="10.81,19.16 53.98,148.67"/>
        <lane id="D_out_1" index="1" disallow="pedestrian" speed="13.89" length="136.52" shape="8.35,19.98 51.52,149.49"/>
    </edge>

    <tlLogic id="J0" type="static" programID="0" offset="0">
        <phase duration="37" state="rrrrrrgggGgGgrrrrrrgggGgGgGrGr"/>
        <phase duration="5"  state="rrrrrrgggGgGgrrrrrrgggGgGgrrrr"/>
        <phase duration="3"  state="rrrrrryyyyyyyrrrrrryyyyyyyrrrr"/>
        <phase duration="36" state="gggGggrrrrrrrgggGggrrrrrrrrGrG"/>
        <phase duration="5"  state="gggGggrrrrrrrgggGggrrrrrrrrrrr"/>
        <phase duration="3"  state="yyyyyyrrrrrrryyyyyyrrrrrrrrrrr"/>
        <phase duration="1"  state="rrrrrrrrrrrrrrrrrrrrrrrrrrrrrr"/>
    </tlLogic>

    <junction id="J0" type="traffic_light" x="0.00" y="0.00" incLanes="D_in_0 D_in_1 -E1.138_0 -E1.138_1 -E1.138_2 -E1.138_3 B_in_0 B_in_1 -E0.112_0 -E0.112_1 -E0.112_2 -E0.112_3 :J0_w1_0 :J0_w2_0 :J0_w3_0 :J0_w0_0" intLanes=":J0_26_0 :J0_27_0 :J0_28_0 :J0_3_0 :J0_29_0 :J0_30_0 :J0_31_0 :J0_32_0 :J0_33_0 :J0_9_0 :J0_34_0 :J0_11_0 :J0_35_0 :J0_36_0 :J0_37_0 :J0_38_0 :J0_16_0 :J0_39_0 :J0_40_0 :J0_41_0 :J0_42_0 :J0_43_0 :J0_22_0 :J0_44_0 :J0_24_0 :J0_45_0 :J0_c0_0 :J0_c1_0 :J0_c2_0 :J0_c3_0" shape="1.90,22.13 11.76,18.84 11.07,15.94 11.12,13.57 11.89,11.72 13.40,10.39 15.63,9.59 18.60,9.31 18.60,-6.20 13.81,-6.64 9.57,-7.98 5.88,-10.19 2.74,-13.30 0.14,-17.29 -1.91,-22.18 -11.78,-18.89 -11.09,-15.99 -11.13,-13.62 -11.91,-11.77 -13.41,-10.45 -15.65,-9.66 -18.61,-9.40 -18.61,6.20 -13.82,6.64 -9.58,7.97 -5.89,10.18 -2.74,13.28 -0.15,17.26" radius="10.00">
        <request index="0"  response="100100000000000000000000000000" foes="100100000000000000000000000000" cont="1"/>
        <request index="1"  response="100100000000000000001000000000" foes="100100000000100000001000000000" cont="1"/>
        <request index="2"  response="100100000000000000101000000000" foes="100100000001100000101000000000" cont="1"/>
        <request index="3"  response="010111111100000001111000000000" foes="010111111101100001111000000000" cont="0"/>
        <request index="4"  response="001111110000011101111000000000" foes="001111110000011101111000000000" cont="1"/>
        <request index="5"  response="001111100000011001111000000000" foes="001111100000011001111000000000" cont="1"/>
        <request index="6"  response="001100000000000000000000000000" foes="001100000000000000000000000000" cont="1"/>
        <request index="7"  response="001100000000000000000000000000" foes="001110100000010000000100000000" cont="1"/>
        <request index="8"  response="001100000000000000000010000000" foes="001110100000010000000010000000" cont="1"/>
        <request index="9"  response="101000000000100000000000110110" foes="101010100000110000000000111110" cont="0"/>
        <request index="10" response="011001011101100001100000110000" foes="011001011101110001100000111000" cont="1"/>
        <request index="11" response="101000000001100000000000110100" foes="101010100001110000010000111100" cont="0"/>
        <request index="12" response="011001011101100000000000110000" foes="011001011101110000010000111000" cont="1"/>
        <request index="13" response="011000000000000000000000000000" foes="011000000000000000000000000000" cont="1"/>
        <request index="14" response="011000010000000000000000000000" foes="011000010000000000000000010000" cont="1"/>
        <request index="15" response="011001010000000000000000000000" foes="011001010000000000000000110000" cont="1"/>
        <request index="16" response="010111110000000001111110000000" foes="010111110000000001111110110000" cont="0"/>
        <request index="17" response="110011110000000001111000001110" foes="110011110000000001111000001110" cont="1"/>
        <request index="18" response="110011110000000001110000001100" foes="110011110000000001110000001100" cont="1"/>
        <request index="19" response="110000000000000000000000000000" foes="110000000000000000000000000000" cont="1"/>
        <request index="20" response="110000000000000000000000000000" foes="110000001000000001010000001000" cont="1"/>
        <request index="21" response="110000000100000000000000000000" foes="110000000100000001010000001000" cont="1"/>
        <request index="22" response="101000000001101100000000010000" foes="101000000001111101010000011000" cont="0"/>
        <request index="23" response="100111000001100000101110110000" foes="100111000001110000101110111000" cont="1"/>
        <request index="24" response="101000000001101000000000110000" foes="101000100001111001010000111000" cont="0"/>
        <request index="25" response="100100000001100000101110110000" foes="100100100001110000101110111000" cont="1"/>
        <request index="26" response="000000000000000000000000000000" foes="000010100000010000000111111111" cont="0"/>
        <request index="27" response="000000000000000000000000000000" foes="000001010000001111111111110000" cont="0"/>
        <request index="28" response="000000000000000000000000000000" foes="000000001111111111010000001000" cont="0"/>
        <request index="29" response="000000000000000000000000000000" foes="000011111111100000101000000111" cont="0"/>
    </junction>
    <junction id="J1" type="dead_end" x="-200.00" y="0.00" incLanes="A_out_0 A_out_1 A_out_2" intLanes="" shape="-200.00,0.00 -200.00,6.20 -200.00,0.00"/>
    <junction id="J2" type="dead_end" x="200.00" y="0.00" incLanes="C_out_0 C_out_1 C_out_2" intLanes="" shape="200.00,-0.00 199.99,6.20 200.00,-6.20"/>
    <junction id="J3" type="dead_end" x="-50.00" y="-150.00" incLanes="B_out_0 B_out_1" intLanes="" shape="-50.00,-150.00 -54.93,-148.36 -50.00,-150.00"/>
    <junction id="J4" type="dead_end" x="50.00" y="150.00" incLanes="D_out_0 D_out_1" intLanes="" shape="50.00,150.00 54.93,148.36 50.00,150.00"/>
    <junction id="J6" type="priority" x="-60.00" y="0.00" incLanes="A_in_0 A_in_1 A_in_2" intLanes=":J6_0_0 :J6_0_1 :J6_0_2" shape="-56.00,0.00 -56.00,-9.40 -59.03,-8.57 -60.97,-7.03 -62.21,-6.44 -64.00,-6.20 -64.00,0.00">
        <request index="0" response="010" foes="010" cont="0"/>
        <request index="1" response="000" foes="001" cont="0"/>
        <request index="2" response="000" foes="000" cont="0"/>
    </junction>
    <junction id="J7" type="priority" x="63.62" y="-0.32" incLanes="C_in_0 C_in_1 C_in_2" intLanes=":J7_0_0 :J7_0_1 :J7_0_2" shape="67.62,5.89 67.64,-0.31 59.61,-0.30 59.66,9.10 62.68,8.26 63.64,7.48 64.60,6.71 65.84,6.12">
        <request index="0" response="010" foes="010" cont="0"/>
        <request index="1" response="000" foes="001" cont="0"/>
        <request index="2" response="000" foes="000" cont="0"/>
    </junction>

    <junction id=":J0_26_0" type="internal" x="-14.61" y="5.77" incLanes=":J0_0_0" intLanes=":J0_9_0 :J0_11_0 :J0_17_0 :J0_17_1 :J0_c0_0 :J0_c3_0"/>
    <junction id=":J0_27_0" type="internal" x="-14.61" y="4.27" incLanes=":J0_0_1" intLanes=":J0_9_0 :J0_11_0 :J0_17_0 :J0_17_1 :J0_c0_0 :J0_c3_0"/>
    <junction id=":J0_28_0" type="internal" x="-14.61" y="2.20" incLanes=":J0_0_2" intLanes=":J0_9_0 :J0_11_0 :J0_17_0 :J0_17_1 :J0_c0_0 :J0_c3_0"/>
    <junction id=":J0_29_0" type="internal" x="4.24" y="9.73" incLanes=":J0_4_0 B_in_0 B_in_1" intLanes=":J0_9_0 :J0_10_0 :J0_11_0 :J0_12_0 :J0_13_0 :J0_13_1 :J0_13_2 :J0_16_0 :J0_22_0 :J0_23_0 :J0_24_0 :J0_25_0 :J0_c0_0 :J0_c1_0"/>
    <junction id=":J0_30_0" type="internal" x="4.13" y="15.21" incLanes=":J0_4_1 B_in_0 B_in_1" intLanes=":J0_9_0 :J0_10_0 :J0_11_0 :J0_12_0 :J0_13_0 :J0_13_1 :J0_13_2 :J0_16_0 :J0_22_0 :J0_23_0 :J0_24_0 :J0_25_0 :J0_c0_0 :J0_c1_0"/>
    <junction id=":J0_31_0" type="internal" x="10.09" y="15.19" incLanes=":J0_6_0" intLanes=":J0_16_0 :J0_23_0 :J0_25_0 :J0_c0_0 :J0_c1_0"/>
    <junction id=":J0_32_0" type="internal" x="7.62" y="16.01" incLanes=":J0_6_1" intLanes=":J0_6_2 :J0_16_0 :J0_23_0 :J0_25_0 :J0_c0_0 :J0_c1_0"/>
    <junction id=":J0_33_0" type="internal" x="8.59" y="15.69" incLanes=":J0_6_2" intLanes=":J0_6_1 :J0_16_0 :J0_23_0 :J0_25_0 :J0_c0_0 :J0_c1_0"/>
    <junction id=":J0_34_0" type="internal" x="6.30" y="0.53" incLanes=":J0_10_0 -E0.112_0 -E0.112_1 -E0.112_2 -E0.112_3" intLanes=":J0_3_0 :J0_4_0 :J0_4_1 :J0_11_0 :J0_12_0 :J0_16_0 :J0_17_0 :J0_17_1 :J0_19_0 :J0_19_1 :J0_19_2 :J0_22_0 :J0_24_0 :J0_c1_0 :J0_c2_0"/>
    <junction id=":J0_35_0" type="internal" x="14.32" y="0.89" incLanes=":J0_12_0 -E0.112_0 -E0.112_1 -E0.112_2 -E0.112_3" intLanes=":J0_3_0 :J0_4_0 :J0_4_1 :J0_10_0 :J0_16_0 :J0_17_0 :J0_17_1 :J0_19_0 :J0_19_1 :J0_19_2 :J0_22_0 :J0_24_0 :J0_c1_0 :J0_c2_0"/>
    <junction id=":J0_36_0" type="internal" x="14.60" y="-5.77" incLanes=":J0_13_0" intLanes=":J0_4_0 :J0_4_1 :J0_22_0 :J0_24_0 :J0_c1_0 :J0_c2_0"/>
    <junction id=":J0_37_0" type="internal" x="14.60" y="-4.27" incLanes=":J0_13_1" intLanes=":J0_4_0 :J0_4_1 :J0_22_0 :J0_24_0 :J0_c1_0 :J0_c2_0"/>
    <junction id=":J0_38_0" type="internal" x="14.60" y="-2.20" incLanes=":J0_13_2" intLanes=":J0_4_0 :J0_4_1 :J0_22_0 :J0_24_0 :J0_c1_0 :J0_c2_0"/>
    <junction id=":J0_39_0" type="internal" x="-4.25" y="-9.76" incLanes=":J0_17_0 D_in_0 D_in_1" intLanes=":J0_0_0 :J0_0_1 :J0_0_2 :J0_3_0 :J0_9_0 :J0_10_0 :J0_11_0 :J0_12_0 :J0_22_0 :J0_23_0 :J0_24_0 :J0_25_0 :J0_c2_0 :J0_c3_0"/>
    <junction id=":J0_40_0" type="internal" x="-4.14" y="-15.24" incLanes=":J0_17_1 D_in_0 D_in_1" intLanes=":J0_0_0 :J0_0_1 :J0_0_2 :J0_3_0 :J0_9_0 :J0_10_0 :J0_11_0 :J0_12_0 :J0_22_0 :J0_23_0 :J0_24_0 :J0_25_0 :J0_c2_0 :J0_c3_0"/>
    <junction id=":J0_41_0" type="internal" x="-10.10" y="-15.23" incLanes=":J0_19_0" intLanes=":J0_3_0 :J0_10_0 :J0_12_0 :J0_c2_0 :J0_c3_0"/>
    <junction id=":J0_42_0" type="internal" x="-7.64" y="-16.05" incLanes=":J0_19_1" intLanes=":J0_3_0 :J0_10_0 :J0_12_0 :J0_19_2 :J0_c2_0 :J0_c3_0"/>
    <junction id=":J0_43_0" type="internal" x="-8.60" y="-15.73" incLanes=":J0_19_2" intLanes=":J0_3_0 :J0_10_0 :J0_12_0 :J0_19_1 :J0_c2_0 :J0_c3_0"/>
    <junction id=":J0_44_0" type="internal" x="-6.28" y="-0.56" incLanes=":J0_23_0 -E1.138_0 -E1.138_1 -E1.138_2 -E1.138_3" intLanes=":J0_3_0 :J0_4_0 :J0_4_1 :J0_6_0 :J0_6_1 :J0_6_2 :J0_9_0 :J0_11_0 :J0_16_0 :J0_17_0 :J0_17_1 :J0_24_0 :J0_25_0 :J0_c0_0 :J0_c3_0"/>