<?xml version="1.0" encoding="UTF-8"?>

<!-- generated on 2025-02-05 08:33:49 by Eclipse SUMO netedit Version 1.21.0
<neteditConfiguration xmlns:xsi="http://www.w3.org/2001/XMLSchema-instance" xsi:noNamespaceSchemaLocation="http://sumo.dlr.de/xsd/neteditConfiguration.xsd">

    <input>
        <sumocfg-file value="C:\Users\Ali Rockaya\Desktop\Random\1\01.sumocfg"/>
        <additional-files value="C:\Users\Ali Rockaya\Desktop\Random\1\01.add.xml"/>
        <route-files value="C:\Users\Ali Rockaya\Desktop\Random\1\01.rou.xml"/>
        <sumo-net-file value="C:\Users\Ali Rockaya\Desktop\Random\1\Variant01_p22.net.xml"/>
    </input>

    <output>
        <output-file value="C:\Users\Ali Rockaya\Desktop\Random\1\Variant01_p22.net.xml"/>
    </output>

    <processing>
        <geometry.min-radius.fix.railways value="false"/>
        <geometry.max-grade.fix value="false"/>
        <offset.disable-normalization value="true"/>
        <lefthand value="0"/>
    </processing>

    <junctions>
        <no-internal-links value="false"/>
        <no-turnarounds value="true"/>
        <junctions.corner-detail value="5"/>
        <junctions.limit-turn-speed value="5.50"/>
        <rectangular-lane-cut value="0"/>
    </junctions>

    <pedestrian>
        <walkingareas value="0"/>
    </pedestrian>

</neteditConfiguration>
-->

<net version="1.20" junctionCornerDetail="5" limitTurnSpeed="5.50" xmlns:xsi="http://www.w3.org/2001/XMLSchema-instance" xsi:noNamespaceSchemaLocation="http://sumo.dlr.de/xsd/net_file.xsd">

    <location netOffset="0.00,0.00" convBoundary="-200.00,-200.00,200.00,200.00" origBoundary="-10000000000.00,-10000000000.00,10000000000.00,10000000000.00" projParameter="!"/>

    <edge id=":J0_w0" function="walkingarea">
        <lane id=":J0_w0_0" index="0" allow="pedestrian" speed="2.78" length="18.80" width="2.00" shape="-200.00,-9.90 -200.00,-11.90 -200.00,8.90 -200.00,6.90"/>
    </edge>
    <edge id=":J1_0" function="internal">
        <lane id=":J1_0_0" index="0" disallow="pedestrian" speed="6.77" length="9.85" shape="-5.30,15.00 -5.66,12.16 -6.73,10.12 -8.51,8.91 -11.00,8.50"/>
    </edge>
    <edge id=":J1_1" function="internal">
        <lane id=":J1_1_0" index="0" disallow="pedestrian" speed="13.89" length="30.82" shape="-5.30,15.00 -5.30,-15.82"/>
        <lane id=":J1_1_1" index="1" disallow="pedestrian" speed="13.89" length="30.82" shape="-2.10,15.00 -2.10,-15.82"/>
    </edge>
    <edge id=":J1_3" function="internal">
        <lane id=":J1_3_0" index="0" disallow="pedestrian" speed="11.08" length="11.12" shape="-2.10,15.00 -1.22,5.99 -0.43,4.07"/>
    </edge>
    <edge id=":J1_16" function="internal">
        <lane id=":J1_16_0" index="0" disallow="pedestrian" speed="11.08" length="17.05" shape="-0.43,4.07 1.42,-0.45 5.83,-4.31 12.00,-5.60"/>
    </edge>
    <edge id=":J1_4" function="internal">
        <lane id=":J1_4_0" index="0" disallow="pedestrian" speed="7.08" length="6.69" shape="12.00,8.20 9.07,8.62 6.97,9.90 6.32,11.00"/>
    </edge>
    <edge id=":J1_5" function="internal">
        <lane id=":J1_5_0" index="0" disallow="pedestrian" speed="13.89" length="23.00" shape="12.00,8.20 -11.00,8.50"/>
        <lane id=":J1_5_1" index="1" disallow="pedestrian" speed="13.89" length="23.00" shape="12.00,5.00 -11.00,5.30"/>
        <lane id=":J1_5_2" index="2" disallow="pedestrian" speed="13.89" length="23.00" shape="12.00,1.80 -11.00,2.10"/>
    </edge>
    <edge id=":J1_8" function="internal">
        <lane id=":J1_8_0" index="0" disallow="pedestrian" speed="10.05" length="7.47" shape="12.00,-1.40 5.83,-2.30 4.78,-2.95"/>
    </edge>
    <edge id=":J1_17" function="internal">
        <lane id=":J1_17_0" index="0" disallow="pedestrian" speed="7.08" length="4.20" shape="6.32,11.00 5.72,12.03 5.30,15.00"/>
    </edge>
    <edge id=":J1_18" function="internal">
        <lane id=":J1_18_0" index="0" disallow="pedestrian" speed="10.05" length="15.53" shape="4.78,-2.95 1.43,-5.01 -1.22,-9.51 -2.10,-15.82"/>
    </edge>
    <edge id=":J1_9" function="internal">
        <lane id=":J1_9_0" index="0" disallow="pedestrian" speed="6.89" length="6.08" shape="5.30,-18.00 5.72,-15.38 6.98,-13.50 8.00,-12.95"/>
    </edge>
    <edge id=":J1_10" function="internal">
        <lane id=":J1_10_0" index="0" disallow="pedestrian" speed="13.89" length="33.00" shape="5.30,-18.00 5.30,15.00"/>
        <lane id=":J1_10_1" index="1" disallow="pedestrian" speed="13.89" length="33.00" shape="2.10,-18.00 2.10,15.00"/>
    </edge>
    <edge id=":J1_12" function="internal">
        <lane id=":J1_12_0" index="0" disallow="pedestrian" speed="10.86" length="11.17" shape="2.10,-18.00 1.28,-9.21 0.43,-7.03"/>
    </edge>
    <edge id=":J1_19" function="internal">
        <lane id=":J1_19_0" index="0" disallow="pedestrian" speed="6.89" length="4.17" shape="8.00,-12.95 9.07,-12.38 12.00,-12.00"/>
    </edge>
    <edge id=":J1_20" function="internal">
        <lane id=":J1_20_0" index="0" disallow="pedestrian" speed="10.86" length="15.84" shape="0.43,-7.03 -1.17,-2.93 -5.27,0.84 -11.00,2.10"/>
    </edge>
    <edge id=":J1_13" function="internal">
        <lane id=":J1_13_0" index="0" disallow="pedestrian" speed="13.89" length="23.00" shape="-11.00,-8.50 12.00,-8.80"/>
        <lane id=":J1_13_1" index="1" disallow="pedestrian" speed="13.89" length="23.00" shape="-11.00,-5.30 12.00,-5.60"/>
    </edge>
    <edge id=":J1_15" function="internal">
        <lane id=":J1_15_0" index="0" disallow="pedestrian" speed="10.35" length="6.59" shape="-11.00,-2.10 -5.27,-1.03 -4.67,-0.56"/>
    </edge>
    <edge id=":J1_21" function="internal">
        <lane id=":J1_21_0" index="0" disallow="pedestrian" speed="10.35" length="17.84" shape="-4.67,-0.56 -1.18,2.17 1.28,7.52 2.10,15.00"/>
    </edge>
    <edge id=":J1_c0" function="crossing" crossingEdges="D_out D_in">
        <lane id=":J1_c0_0" index="0" allow="pedestrian" speed="2.78" length="13.80" width="4.00" shape="6.90,13.00 -6.90,13.00" outlineShape="7.00,15.00 -7.00,15.00 -7.01,13.50 -7.36,12.28 -7.93,11.33 -8.31,11.00 8.31,11.00 8.18,11.10 7.47,12.11 7.04,13.41"/>
    </edge>
    <edge id=":J1_c1" function="crossing" crossingEdges="E1 -E1.160">
        <lane id=":J1_c1_0" index="0" allow="pedestrian" speed="2.78" length="23.40" width="4.00" shape="10.00,-13.60 10.00,9.80" outlineShape="12.00,-13.70 12.00,9.80 10.44,9.94 9.17,10.38 8.18,11.10 8.00,11.35 8.00,-14.91 8.18,-14.70 9.17,-14.09 10.44,-13.72"/>
    </edge>
    <edge id=":J1_c2" function="crossing" crossingEdges="E3 B_in">
        <lane id=":J1_c2_0" index="0" allow="pedestrian" speed="2.78" length="13.97" width="4.00" shape="-6.90,-13.82 6.90,-16.00" outlineShape="-7.21,-15.80 6.59,-17.98 7.04,-16.66 7.47,-15.56 8.18,-14.70 8.85,-14.28 -7.87,-11.65 -7.36,-12.64 -7.01,-14.08"/>
    </edge>
    <edge id=":J1_w0" function="walkingarea">
        <lane id=":J1_w0_0" index="0" allow="pedestrian" speed="2.78" length="3.91" width="4.00" shape="-11.00,10.10 -11.00,12.10 -8.90,15.00 -6.90,15.00 -7.01,13.50 -7.36,12.28 -7.93,11.33 -8.72,10.64 -9.75,10.24"/>
    </edge>
    <edge id=":J1_w1" function="walkingarea">
        <lane id=":J1_w1_0" index="0" allow="pedestrian" speed="2.78" length="4.33" width="4.00" shape="6.90,15.00 8.90,15.00 12.00,11.80 12.00,9.80 10.44,9.94 9.17,10.38 8.18,11.10 7.47,12.11 7.04,13.41"/>
    </edge>
    <edge id=":J1_w2" function="walkingarea">
        <lane id=":J1_w2_0" index="0" allow="pedestrian" speed="2.78" length="3.98" width="4.00" shape="12.00,-13.60 12.00,-15.60 8.90,-18.00 6.90,-18.00 6.59,-17.98 7.04,-16.66 7.47,-15.56 8.18,-14.70 9.17,-14.09 10.44,-13.72"/>
    </edge>
    <edge id=":J1_w3" function="walkingarea">
        <lane id=":J1_w3_0" index="0" allow="pedestrian" speed="2.78" length="2.24" width="4.00" shape="-7.21,-15.80 -6.90,-15.82 -8.90,-15.82 -9.75,-10.26 -8.72,-10.74 -7.93,-11.53 -7.36,-12.64 -7.01,-14.08"/>
    </edge>
    <edge id=":J10_0" function="internal">
        <lane id=":J10_0_0" index="0" disallow="pedestrian" speed="13.89" length="8.20" shape="46.50,8.20 38.50,8.20"/>
        <lane id=":J10_0_1" index="1" disallow="pedestrian" speed="13.89" length="8.20" shape="46.50,5.00 38.50,5.00"/>
        <lane id=":J10_0_2" index="2" disallow="pedestrian" speed="13.89" length="8.20" shape="46.50,1.80 38.50,1.80"/>
        <lane id=":J10_0_3" index="3" disallow="pedestrian" speed="13.89" length="8.20" shape="46.50,1.80 44.04,1.30 42.50,0.20 40.96,-0.90 38.50,-1.40"/>
    </edge>
    <edge id=":J10_w0" function="walkingarea">
        <lane id=":J10_w0_0" index="0" allow="pedestrian" speed="2.78" length="8.00" width="2.00" shape="38.50,9.80 38.50,11.80 46.50,11.80 46.50,9.80"/>
    </edge>
    <edge id=":J11_0" function="internal">
        <lane id=":J11_0_0" index="0" disallow="pedestrian" speed="13.89" length="14.16" shape="-46.00,8.50 -50.21,8.00 -53.00,6.90 -55.79,5.80 -60.00,5.30"/>
        <lane id=":J11_0_1" index="1" disallow="pedestrian" speed="13.89" length="14.16" shape="-46.00,5.30 -60.00,5.30"/>
        <lane id=":J11_0_2" index="2" disallow="pedestrian" speed="13.89" length="14.16" shape="-46.00,2.10 -60.00,2.10"/>
    </edge>
    <edge id=":J11_w0" function="walkingarea">
        <lane id=":J11_w0_0" index="0" allow="pedestrian" speed="2.78" length="14.36" width="2.00" shape="-60.00,6.90 -60.00,8.90 -46.00,12.10 -46.00,10.10 -49.03,9.86 -51.23,9.27 -53.00,8.50 -54.77,7.73 -56.97,7.14"/>
    </edge>
    <edge id=":J2_w0" function="walkingarea">
        <lane id=":J2_w0_0" index="0" allow="pedestrian" speed="2.78" length="22.20" width="2.00" shape="200.00,9.80 200.00,11.80 200.00,-12.40 200.00,-10.40"/>
    </edge>
    <edge id=":J3_w0" function="walkingarea">
        <lane id=":J3_w0_0" index="0" allow="pedestrian" speed="2.78" length="15.80" width="2.00" shape="-6.90,200.00 -8.90,200.00 8.90,200.00 6.90,200.00"/>
    </edge>
    <edge id=":J4_w0" function="walkingarea">
        <lane id=":J4_w0_0" index="0" allow="pedestrian" speed="2.78" length="15.80" width="2.00" shape="6.90,-200.00 8.90,-200.00 -8.90,-200.00 -6.90,-200.00"/>
    </edge>
    <edge id=":J6_0" function="internal">
        <lane id=":J6_0_0" index="0" disallow="pedestrian" speed="13.89" length="16.57" shape="-31.90,-8.30 -27.06,-8.49 -23.75,-9.25 -20.73,-10.87 -16.71,-13.67"/>
    </edge>
    <edge id=":J6_1" function="internal">
        <lane id=":J6_1_0" index="0" disallow="pedestrian" speed="13.89" length="16.57" shape="-31.90,-8.30 -15.46,-8.50"/>
        <lane id=":J6_1_1" index="1" disallow="pedestrian" speed="13.89" length="16.57" shape="-31.90,-5.10 -15.46,-5.30"/>
        <lane id=":J6_1_2" index="2" disallow="pedestrian" speed="13.89" length="16.57" shape="-31.90,-5.10 -26.98,-4.63 -23.68,-3.60 -20.38,-2.57 -15.46,-2.10"/>
    </edge>
    <edge id=":J6_w0" function="walkingarea">
        <lane id=":J6_w0_0" index="0" allow="pedestrian" speed="2.78" length="15.04" width="2.00" shape="-17.21,-15.27 -18.36,-16.90 -31.90,-11.90 -31.90,-9.90 -28.64,-9.97 -26.21,-10.25 -24.25,-10.80 -22.40,-11.72 -20.31,-13.09"/>
    </edge>
    <edge id=":J7_0" function="internal">
        <lane id=":J7_0_0" index="0" disallow="pedestrian" speed="13.89" length="18.98" shape="-5.30,-16.02 -5.30,-35.00"/>
        <lane id=":J7_0_1" index="1" disallow="pedestrian" speed="13.89" length="18.98" shape="-2.10,-16.02 -2.10,-35.00"/>
    </edge>
    <edge id=":J7_2" function="internal">
        <lane id=":J7_2_0" index="0" disallow="pedestrian" speed="13.23" length="21.60" shape="-13.51,-15.91 -9.92,-19.27 -7.35,-23.57 -5.81,-28.81 -5.30,-35.00"/>
    </edge>
    <edge id=":J7_c0" function="crossing" crossingEdges="E4">
        <lane id=":J7_c0_0" index="0" allow="pedestrian" speed="2.78" length="3.20" width="4.00" shape="-10.96,-15.75 -12.80,-18.37" outlineShape="-12.59,-14.60 -14.43,-17.22 -12.13,-19.18 -11.49,-19.99 -9.14,-16.65 -9.43,-16.54 -10.85,-15.75"/>
    </edge>
    <edge id=":J7_w0" function="walkingarea">
        <lane id=":J7_w0_0" index="0" allow="pedestrian" speed="2.78" length="3.07" width="4.00" shape="-12.59,-14.60 -8.90,-16.02 -6.90,-16.02 -7.06,-16.70 -7.53,-17.01 -8.32,-16.96 -9.43,-16.54 -10.85,-15.75"/>
    </edge>
    <edge id=":J7_w1" function="walkingarea">
        <lane id=":J7_w1_0" index="0" allow="pedestrian" speed="2.78" length="13.55" width="4.00" shape="-6.90,-35.00 -8.90,-35.00 -16.81,-17.99 -15.66,-16.36 -14.43,-17.22 -12.13,-19.18 -10.25,-21.55 -8.78,-24.31 -7.74,-27.47 -7.11,-31.04"/>
    </edge>
    <edge id=":J9_0" function="internal">
        <lane id=":J9_0_0" index="0" disallow="pedestrian" speed="13.89" length="8.27" shape="38.50,-12.00 40.96,-11.50 42.50,-10.40 44.04,-9.30 46.50,-8.80"/>
        <lane id=":J9_0_1" index="1" disallow="pedestrian" speed="13.89" length="8.27" shape="38.50,-8.80 46.50,-8.80"/>
        <lane id=":J9_0_2" index="2" disallow="pedestrian" speed="13.89" length="8.27" shape="38.50,-5.60 46.50,-5.60"/>
    </edge>
    <edge id=":J9_w0" function="walkingarea">
        <lane id=":J9_w0_0" index="0" allow="pedestrian" speed="2.78" length="8.62" width="2.00" shape="46.50,-10.40 46.50,-12.40 38.50,-15.60 38.50,-13.60 40.29,-13.36 41.53,-12.77 42.50,-12.00 43.47,-11.23 44.71,-10.64"/>
    </edge>

    <edge id="-E0" from="J1" to="J11" priority="-1" shape="-11.00,0.50 -40.00,0.50">
        <lane id="-E0_0" index="0" allow="pedestrian" speed="13.89" length="35.00" width="2.00" shape="-11.00,11.10 -46.00,11.10"/>
        <lane id="-E0_1" index="1" disallow="pedestrian" speed="13.89" length="35.00" shape="-11.00,8.50 -46.00,8.50"/>
        <lane id="-E0_2" index="2" disallow="pedestrian" speed="13.89" length="35.00" shape="-11.00,5.30 -46.00,5.30"/>
        <lane id="-E0_3" index="3" disallow="pedestrian" speed="13.89" length="35.00" shape="-11.00,2.10 -46.00,2.10"/>
    </edge>
    <edge id="-E1.160" from="J10" to="J1" priority="-1" shape="40.00,-3.00 12.00,-3.00">
        <lane id="-E1.160_0" index="0" allow="pedestrian" speed="13.89" length="26.50" width="2.00" shape="38.50,10.80 12.00,10.80"/>
        <lane id="-E1.160_1" index="1" disallow="pedestrian" speed="13.89" length="26.50" shape="38.50,8.20 12.00,8.20"/>
        <lane id="-E1.160_2" index="2" disallow="pedestrian" speed="13.89" length="26.50" shape="38.50,5.00 12.00,5.00"/>
        <lane id="-E1.160_3" index="3" disallow="pedestrian" speed="13.89" length="26.50" shape="38.50,1.80 12.00,1.80"/>
        <lane id="-E1.160_4" index="4" disallow="pedestrian" speed="13.89" length="26.50" shape="38.50,-1.40 12.00,-1.40"/>
    </edge>
    <edge id="A_in" from="J0" to="J6" priority="-1" shape="-200.00,-3.50 -30.00,-3.50">
        <lane id="A_in_0" index="0" allow="pedestrian" speed="13.89" length="168.10" width="2.00" shape="-200.00,-10.90 -31.90,-10.90"/>
        <lane id="A_in_1" index="1" disallow="pedestrian" speed="13.89" length="168.10" shape="-200.00,-8.30 -31.90,-8.30"/>
        <lane id="A_in_2" index="2" disallow="pedestrian" speed="13.89" length="168.10" shape="-200.00,-5.10 -31.90,-5.10"/>
    </edge>
    <edge id="A_out" from="J11" to="J0" priority="-1" shape="-60.00,0.50 -200.00,0.50">
        <lane id="A_out_0" index="0" allow="pedestrian" speed="13.89" length="140.00" width="2.00" shape="-60.00,7.90 -200.00,7.90"/>
        <lane id="A_out_1" index="1" disallow="pedestrian" speed="13.89" length="140.00" shape="-60.00,5.30 -200.00,5.30"/>
        <lane id="A_out_2" index="2" disallow="pedestrian" speed="13.89" length="140.00" shape="-60.00,2.10 -200.00,2.10"/>
    </edge>
    <edge id="B_in" from="J4" to="J1" priority="-1" shape="0.50,-200.00 0.50,-14.00">
        <lane id="B_in_0" index="0" allow="pedestrian" speed="13.89" length="182.00" width="2.00" shape="7.90,-200.00 7.90,-18.00"/>
        <lane id="B_in_1" index="1" disallow="pedestrian" speed="13.89" length="182.00" shape="5.30,-200.00 5.30,-18.00"/>
        <lane id="B_in_2" index="2" disallow="pedestrian" speed="13.89" length="182.00" shape="2.10,-200.00 2.10,-18.00"/>
    </edge>
    <edge id="B_out" from="J7" to="J4" priority="-1" shape="-0.50,-35.00 -0.50,-200.00">
        <lane id="B_out_0" index="0" allow="pedestrian" speed="13.89" length="165.00" width="2.00" shape="-7.90,-35.00 -7.90,-200.00"/>
        <lane id="B_out_1" index="1" disallow="pedestrian" speed="13.89" length="165.00" shape="-5.30,-35.00 -5.30,-200.00"/>
        <lane id="B_out_2" index="2" disallow="pedestrian" speed="13.89" length="165.00" shape="-2.10,-35.00 -2.10,-200.00"/>
    </edge>
    <edge id="C_in" from="J2" to="J10" priority="-1" shape="200.00,0.20 45.00,0.20">
        <lane id="C_in_0" index="0" allow="pedestrian" speed="13.89" length="153.50" width="2.00" shape="200.00,10.80 46.50,10.80"/>
        <lane id="C_in_1" index="1" disallow="pedestrian" speed="13.89" length="153.50" shape="200.00,8.20 46.50,8.20"/>
        <lane id="C_in_2" index="2" disallow="pedestrian" speed="13.89" length="153.50" shape="200.00,5.00 46.50,5.00"/>
        <lane id="C_in_3" index="3" disallow="pedestrian" speed="13.89" length="153.50" shape="200.00,1.80 46.50,1.80"/>
    </edge>
    <edge id="C_out" from="J9" to="J2" priority="-1" shape="45.00,-4.00 200.00,-4.00">
        <lane id="C_out_0" index="0" allow="pedestrian" speed="13.89" length="153.50" width="2.00" shape="46.50,-11.40 200.00,-11.40"/>
        <lane id="C_out_1" index="1" disallow="pedestrian" speed="13.89" length="153.50" shape="46.50,-8.80 200.00,-8.80"/>
        <lane id="C_out_2" index="2" disallow="pedestrian" speed="13.89" length="153.50" shape="46.50,-5.60 200.00,-5.60"/>
    </edge>
    <edge id="D_in" from="J3" to="J1" priority="-1" shape="-0.50,200.00 -0.50,15.00">
        <lane id="D_in_0" index="0" allow="pedestrian" speed="13.89" length="185.00" width="2.00" shape="-7.90,200.00 -7.90,15.00"/>
        <lane id="D_in_1" index="1" disallow="pedestrian" speed="13.89" length="185.00" shape="-5.30,200.00 -5.30,15.00"/>
        <lane id="D_in_2" index="2" disallow="pedestrian" speed="13.89" length="185.00" shape="-2.10,200.00 -2.10,15.00"/>
    </edge>
    <edge id="D_out" from="J1" to="J3" priority="-1" shape="0.50,15.00 0.50,200.00">
        <lane id="D_out_0" index="0" allow="pedestrian" speed="13.89" length="185.00" width="2.00" shape="7.90,15.00 7.90,200.00"/>
        <lane id="D_out_1" index="1" disallow="pedestrian" speed="13.89" length="185.00" shape="5.30,15.00 5.30,200.00"/>
        <lane id="D_out_2" index="2" disallow="pedestrian" speed="13.89" length="185.00" shape="2.10,15.00 2.10,200.00"/>
    </edge>
    <edge id="E0.143" from="J6" to="J1" priority="-1" shape="-30.00,-0.50 -10.00,-0.50">
        <lane id="E0.143_0" index="0" disallow="pedestrian" speed="13.89" length="4.46" shape="-15.46,-8.50 -11.00,-8.50"/>
        <lane id="E0.143_1" index="1" disallow="pedestrian" speed="13.89" length="4.46" shape="-15.46,-5.30 -11.00,-5.30"/>
        <lane id="E0.143_2" index="2" disallow="pedestrian" speed="13.89" length="4.46" shape="-15.46,-2.10 -11.00,-2.10"/>
    </edge>
    <edge id="E1" from="J1" to="J9" priority="-1" shape="12.00,-4.00 40.00,-4.00">
        <lane id="E1_0" index="0" allow="pedestrian" speed="13.89" length="26.50" width="2.00" shape="12.00,-14.60 38.50,-14.60"/>
        <lane id="E1_1" index="1" disallow="pedestrian" speed="13.89" length="26.50" shape="12.00,-12.00 38.50,-12.00"/>
        <lane id="E1_2" index="2" disallow="pedestrian" speed="13.89" length="26.50" shape="12.00,-8.80 38.50,-8.80"/>
        <lane id="E1_3" index="3" disallow="pedestrian" speed="13.89" length="26.50" shape="12.00,-5.60 38.50,-5.60"/>
    </edge>
    <edge id="E3" from="J1" to="J7" priority="-1" shape="-0.50,-18.00 -0.50,-30.00">
        <lane id="E3_0" index="0" allow="pedestrian" speed="13.89" length="0.20" width="2.00" shape="-7.90,-15.82 -7.90,-16.02"/>
        <lane id="E3_1" index="1" disallow="pedestrian" speed="13.89" length="0.20" shape="-5.30,-15.82 -5.30,-16.02"/>
        <lane id="E3_2" index="2" disallow="pedestrian" speed="13.89" length="0.20" shape="-2.10,-15.82 -2.10,-16.02"/>
    </edge>
    <edge id="E4" from="J6" to="J7" priority="-1" shape="-25.00,-7.50 -20.26,-9.61 -15.98,-12.22 -11.84,-15.13 -8.59,-18.14 -5.74,-21.21 -4.20,-25.00">
        <lane id="E4_0" index="0" allow="pedestrian" speed="13.89" length="2.90" width="2.00" shape="-17.79,-16.08 -16.23,-17.17"/>
        <lane id="E4_1" index="1" disallow="pedestrian" speed="13.89" length="2.90" shape="-16.71,-13.67 -13.51,-15.91"/>
    </edge>

    <tlLogic id="J1" type="static" programID="0" offset="0">
        <phase duration="33" state="rrrrgGGGgrrrrGGgGrG"/>
        <phase duration="5"  state="rrrrgGGGgrrrrGGgrrr"/>
        <phase duration="3"  state="rrrryyyygrrrryygrrr"/>
        <phase duration="6"  state="rrrrrrrrGrrrrrrGrrr"/>
        <phase duration="3"  state="rrrrrrrryrrrrrryrrr"/>
        <phase duration="32" state="GGGgrrrrrgGGgrrrrGr"/>
        <phase duration="5"  state="GGGgrrrrrgGGgrrrrrr"/>
        <phase duration="3"  state="yyyyrrrrryyyyrrrrrr"/>
    </tlLogic>

    <junction id="J0" type="dead_end" x="-200.00" y="0.00" incLanes="A_out_0 A_out_1 A_out_2" intLanes="" shape="-200.00,-3.50 -200.00,8.90 -200.00,0.50"/>
    <junction id="J1" type="traffic_light" x="0.00" y="0.00" incLanes="D_in_0 D_in_1 D_in_2 -E1.160_0 -E1.160_1 -E1.160_2 -E1.160_3 -E1.160_4 B_in_0 B_in_1 B_in_2 E0.143_0 E0.143_1 E0.143_2 :J1_w1_0 :J1_w2_0 :J1_w3_0" intLanes=":J1_0_0 :J1_1_0 :J1_1_1 :J1_16_0 :J1_17_0 :J1_5_0 :J1_5_1 :J1_5_2 :J1_18_0 :J1_19_0 :J1_10_0 :J1_10_1 :J1_20_0 :J1_13_0 :J1_13_1 :J1_21_0 :J1_c0_0 :J1_c1_0 :J1_c2_0" shape="-8.90,15.00 8.90,15.00 9.24,13.22 9.68,12.60 10.28,12.16 11.05,11.89 12.00,11.80 12.00,-15.60 10.28,-15.87 9.68,-16.20 9.24,-16.67 8.99,-17.27 8.90,-18.00 -8.90,-18.00 -8.96,-15.59 -9.13,-13.61 -9.43,-12.07 -9.83,-10.98 -10.36,-10.32 -11.00,-10.10 -11.00,12.10 -9.83,12.42 -9.43,12.82 -9.13,13.39 -8.96,14.11">
        <request index="0"  response="0010000000011100000" foes="0010000000011100000" cont="0"/>
        <request index="1"  response="1011110000111100000" foes="1011111000111100000" cont="0"/>
        <request index="2"  response="1011110000111100000" foes="1011111000111100000" cont="0"/>
        <request index="3"  response="0111110110111100000" foes="0111110110111100000" cont="1"/>
        <request index="4"  response="0110000000000000000" foes="0110000110000000000" cont="1"/>
        <request index="5"  response="0100001000000001000" foes="0101001110000001111" cont="0"/>
        <request index="6"  response="0100001000000001000" foes="0101001110000001111" cont="0"/>
        <request index="7"  response="0100001000000001000" foes="0101001110000001111" cont="0"/>
        <request index="8"  response="1100111000000001000" foes="1100111110000001110" cont="1"/>
        <request index="9"  response="1100000000000000000" foes="1100000000000000000" cont="1"/>
        <request index="10" response="1011110000111110000" foes="1011110000111111000" cont="0"/>
        <request index="11" response="1011110000111110000" foes="1011110000111111000" cont="0"/>
        <request index="12" response="1001110000111100110" foes="1001110000111100110" cont="1"/>
        <request index="13" response="0100001000000001000" foes="0100001110100001110" cont="0"/>
        <request index="14" response="0100001000000001000" foes="0100001110100001110" cont="0"/>
        <request index="15" response="0010001000011101000" foes="0010001110011101110" cont="1"/>
        <request index="16" response="0000000000000000000" foes="0001000110000011111" cont="0"/>
        <request index="17" response="0000000000000000000" foes="0000110001111111000" cont="0"/>
        <request index="18" response="0000000000000000000" foes="0000001111100000110" cont="0"/>
    </junction>
    <junction id="J10" type="priority" x="39.58" y="0.00" incLanes="C_in_0 C_in_1 C_in_2 C_in_3" intLanes=":J10_0_0 :J10_0_1 :J10_0_2 :J10_0_3" shape="46.50,11.80 46.50,0.20 43.47,-0.63 41.53,-2.17 40.29,-2.76 38.50,-3.00 38.50,11.80">
        <request index="0" response="0000" foes="0000" cont="0"/>
        <request index="1" response="0000" foes="0000" cont="0"/>
        <request index="2" response="0000" foes="0000" cont="0"/>
        <request index="3" response="0000" foes="0000" cont="0"/>
    </junction>
    <junction id="J11" type="priority" x="-40.00" y="0.50" incLanes="-E0_0 -E0_1 -E0_2 -E0_3" intLanes=":J11_0_0 :J11_0_1 :J11_0_2" shape="-46.00,12.10 -46.00,0.50 -60.00,0.50 -60.00,8.90 -56.97,9.14 -54.77,9.73 -51.23,11.27 -49.03,11.86">
        <request index="0" response="010" foes="010" cont="0"/>
        <request index="1" response="000" foes="001" cont="0"/>
        <request index="2" response="000" foes="000" cont="0"/>
    </junction>
    <junction id="J12" type="dead_end" x="0.00" y="0.00" incLanes="" intLanes="" shape="0.00,0.00"/>
    <junction id="J13" type="dead_end" x="0.00" y="0.00" incLanes="" intLanes="" shape="0.00,0.00"/>
    <junction id="J14" type="dead_end" x="0.00" y="0.00" incLanes="" intLanes="" shape="0.00,0.00"/>
    <junction id="J15" type="dead_end" x="0.00" y="0.00" incLanes="" intLanes="" shape="0.00,0.00"/>
    <junction id="J16" type="dead_end" x="0.00" y="0.00" incLanes="" intLanes="" shape="0.00,0.00"/>
    <junction id="J17" type="dead_end" x="0.00" y="0.00" incLanes="" intLanes="" shape="0.00,0.00"/>
    <junction id="J18" type="dead_end" x="0.00" y="0.00" incLanes="" intLanes="" shape="0.00,0.00"/>
    <junction id="J19" type="dead_end" x="0.00" y="0.00" incLanes="" intLanes="" shape="0.00,0.00"/>
    <junction id="J2" type="dead_end" x="200.00" y="0.00" incLanes="C_out_0 C_out_1 C_out_2" intLanes="" shape="200.00,0.20 200.00,-12.40 200.00,-4.00"/>
    <junction id="J3" type="dead_end" x="0.00" y="200.00" incLanes="D_out_0 D_out_1 D_out_2" intLanes="" shape="-0.50,200.00 8.90,200.00 0.50,200.00"/>
    <junction id="J4" type="dead_end" x="0.00" y="-200.00" incLanes="B_out_0 B_out_1 B_out_2" intLanes="" shape="0.50,-200.00 -8.90,-200.00 -0.50,-200.00"/>
    <junction id="J5" type="dead_end" x="0.00" y="0.00" incLanes="" intLanes="" shape="0.00,0.00"/>
    <junction id="J6" type="priority" x="-30.00" y="0.00" incLanes="A_in_0 A_in_1 A_in_2" intLanes=":J6_0_0 :J6_1_0 :J6_1_1 :J6_1_2" shape="-15.46,-0.50 -15.46,-10.10 -17.09,-10.34 -17.36,-10.63 -17.26,-11.04 -16.80,-11.57 -16.04,-12.18 -18.20,-17.01 -20.79,-15.17 -22.79,-13.82 -24.55,-12.88 -26.43,-12.29 -28.76,-11.99 -31.90,-11.90 -31.90,-3.50 -28.36,-3.28 -25.78,-2.72 -21.58,-1.28 -19.00,-0.72">
        <request index="0" response="0000" foes="0000" cont="0"/>
        <request index="1" response="0000" foes="0000" cont="0"/>
        <request index="2" response="0000" foes="0000" cont="0"/>
        <request index="3" response="0000" foes="0000" cont="0"/>
    </junction>
    <junction id="J7" type="priority" x="0.00" y="-30.00" incLanes="E3_0 E3_1 E3_2 E4_0 E4_1 :J7_w0_0" intLanes=":J7_0_0 :J7_0_1 :J7_2_0 :J7_c0_0" shape="-8.90,-13.85 -0.50,-13.85 -0.50,-35.00 -8.90,-35.00 -9.13,-31.34 -9.83,-27.99 -10.99,-24.94 -12.62,-22.21 -14.72,-19.78 -17.28,-17.66 -11.83,-15.13" customShape="1">
        <request index="0" response="0000" foes="0100" cont="0"/>
        <request index="1" response="0000" foes="0100" cont="0"/>
        <request index="2" response="0011" foes="1011" cont="0"/>
        <request index="3" response="0100" foes="0100" cont="0"/>
    </junction>
    <junction id="J8" type="dead_end" x="0.00" y="0.00" incLanes="" intLanes="" shape="0.00,0.00"/>
    <junction id="J9" type="priority" x="41.00" y="0.00" incLanes="E1_0 E1_1 E1_2 E1_3" intLanes=":J9_0_0 :J9_0_1 :J9_0_2" shape="46.50,-4.00 46.50,-12.40 43.47,-13.23 41.53,-14.77 40.29,-15.36 38.50,-15.60 38.50,-4.00">
        <request index="0" response="010" foes="010" cont="0"/>
        <request index="1" response="000" foes="001" cont="0"/>
        <request index="2" response="000" foes="000" cont="0"/>
    </junction>

    <junction id=":J1_16_0" type="internal" x="-0.43" y="4.07" incLanes=":J1_3_0 B_in_1 B_in_2" intLanes=":J1_5_0 :J1_5_1 :J1_5_2 :J1_8_0 :J1_9_0 :J1_10_0 :J1_10_1 :J1_13_0 :J1_13_1 :J1_15_0 :J1_c0_0 :J1_c1_0"/>
    <junction id=":J1_17_0" type="internal" x="6.32" y="11.00" incLanes=":J1_4_0" intLanes=":J1_10_0 :J1_10_1 :J1_15_0 :J1_c0_0 :J1_c1_0"/>
    <junction id=":J1_18_0" type="internal" x="4.78" y="-2.95" incLanes=":J1_8_0 E0.143_0 E0.143_1" intLanes=":J1_1_0 :J1_1_1 :J1_3_0 :J1_10_0 :J1_10_1 :J1_12_0 :J1_13_0 :J1_13_1 :J1_c1_0 :J1_c2_0"/>
    <junction id=":J1_19_0" type="internal" x="8.00" y="-12.95" incLanes=":J1_9_0" intLanes=":J1_3_0 :J1_13_0 :J1_13_1 :J1_c1_0 :J1_c2_0"/>
    <junction id=":J1_20_0" type="internal" x="0.43" y="-7.03" incLanes=":J1_12_0 D_in_1 D_in_2" intLanes=":J1_0_0 :J1_1_0 :J1_1_1 :J1_5_0 :J1_5_1 :J1_5_2 :J1_8_0 :J1_13_0 :J1_13_1 :J1_15_0 :J1_c2_0"/>
    <junction id=":J1_21_0" type="internal" x="-4.67" y="-0.56" incLanes=":J1_15_0 -E1.160_1 -E1.160_2 -E1.160_3" intLanes=":J1_1_0 :J1_1_1 :J1_3_0 :J1_4_0 :J1_5_0 :J1_5_1 :J1_5_2 :J1_10_0 :J1_10_1 :J1_12_0 :J1_c0_0"/>

    <connection from="-E0" to="A_out" fromLane="1" toLane="1" via=":J11_0_0" dir="s" state="m"/>
    <connection from="-E0" to="A_out" fromLane="2" toLane="1" via=":J11_0_1" dir="s" state="M"/>
    <connection from="-E0" to="A_out" fromLane="3" toLane="2" via=":J11_0_2" dir="s" state="M"/>
    <connection from="-E1.160" to="D_out" fromLane="1" toLane="1" via=":J1_4_0" tl="J1" linkIndex="4" dir="r" state="o"/>
    <connection from="-E1.160" to="-E0" fromLane="1" toLane="1" via=":J1_5_0" tl="J1" linkIndex="5" dir="s" state="o"/>
    <connection from="-E1.160" to="-E0" fromLane="2" toLane="2" via=":J1_5_1" tl="J1" linkIndex="6" dir="s" state="o"/>