<?xml version="1.0" encoding="UTF-8"?>

<!-- generated on 2025-02-05 12:26:34 by Eclipse SUMO netedit Version 1.21.0
<neteditConfiguration xmlns:xsi="http://www.w3.org/2001/XMLSchema-instance" xsi:noNamespaceSchemaLocation="http://sumo.dlr.de/xsd/neteditConfiguration.xsd">

    <input>
        <sumocfg-file value="C:\Users\Ali Rockaya\Desktop\Random\4\4.sumocfg"/>
        <additional-files value="C:\Users\Ali Rockaya\Desktop\Random\4\4.add.xml"/>
        <route-files value="C:\Users\Ali Rockaya\Desktop\Random\4\4.rou.xml"/>
        <data-files value="C:\Users\Ali Rockaya\Desktop\Random\4\4.dat.xml"/>
        <sumo-net-file value="C:\Users\Ali Rockaya\Desktop\Random\4\Variant4_p30.net.xml"/>
    </input>

    <output>
        <output-file value="C:\Users\Ali Rockaya\Desktop\Random\4\Variant4_p30.net.xml"/>
    </output>

    <processing>
        <geometry.min-radius.fix.railways value="false"/>
        <geometry.max-grade.fix value="false"/>
        <offset.disable-normalization value="true"/>
        <lefthand value="0"/>
    </processing>

    <junctions>
        <no-internal-links value="false"/>
        <no-turnarounds value="true"/>
        <junctions.corner-detail value="5"/>
        <junctions.limit-turn-speed value="5.50"/>
        <rectangular-lane-cut value="0"/>
    </junctions>

    <pedestrian>
        <walkingareas value="0"/>
    </pedestrian>

</neteditConfiguration>
-->

<net version="1.20" junctionCornerDetail="5" limitTurnSpeed="5.50" xmlns:xsi="http://www.w3.org/2001/XMLSchema-instance" xsi:noNamespaceSchemaLocation="http://sumo.dlr.de/xsd/net_file.xsd">

    <location netOffset="0.00,0.00" convBoundary="-200.00,-150.00,200.00,150.00" origBoundary="-10000000000.00,-10000000000.00,10000000000.00,10000000000.00" projParameter="!"/>

    <edge id=":J0_0" function="internal">
        <lane id=":J0_0_0" index="0" allow="bicycle" speed="13.34" length="31.13" width="1.00" shape="4.28,21.39 0.64,13.65 -4.39,8.12 -10.81,4.81 -18.61,3.70"/>
        <lane id=":J0_0_1" index="1" disallow="pedestrian bicycle" speed="13.75" length="33.16" shape="5.33,21.04 1.40,12.53 -3.90,6.46 -10.57,2.81 -18.61,1.60"/>
    </edge>
    <edge id=":J0_2" function="internal">
        <lane id=":J0_2_0" index="0" disallow="pedestrian" speed="13.89" length="43.28" shape="5.33,21.04 -8.36,-20.03"/>
    </edge>
    <edge id=":J0_3" function="internal">
        <lane id=":J0_3_0" index="0" allow="bicycle" speed="10.89" length="33.87" width="1.00" shape="6.37,20.69 4.13,10.81 5.01,3.10 9.63,-1.91 18.61,-3.70"/>
        <lane id=":J0_3_1" index="1" disallow="pedestrian bicycle" speed="10.69" length="32.58" shape="5.33,21.04 3.41,11.66 4.77,4.53 9.74,-0.01 18.61,-1.60"/>
    </edge>
    <edge id=":J0_5" function="internal">
        <lane id=":J0_5_0" index="0" disallow="pedestrian bicycle" speed="8.85" length="21.93" shape="18.61,5.80 12.35,6.69 8.55,9.36 7.22,13.80 8.36,20.03"/>
        <lane id=":J0_5_1" index="1" allow="bicycle" speed="8.88" length="22.99" width="1.00" shape="18.61,3.70 12.59,4.70 9.04,7.69 7.98,12.69 9.41,19.68"/>
    </edge>
    <edge id=":J0_7" function="internal">
        <lane id=":J0_7_0" index="0" allow="bicycle" speed="13.89" length="37.23" width="1.00" shape="18.61,3.70 -18.61,3.70"/>
    </edge>
    <edge id=":J0_8" function="internal">
        <lane id=":J0_8_0" index="0" allow="bicycle" speed="13.89" length="39.23" width="1.00" shape="18.61,3.70 9.28,2.24 1.50,-2.14 -4.73,-9.45 -9.41,-19.68"/>
    </edge>
    <edge id=":J0_9" function="internal">
        <lane id=":J0_9_0" index="0" disallow="pedestrian bicycle" speed="13.89" length="37.23" shape="18.61,1.60 -18.61,1.60"/>
    </edge>
    <edge id=":J0_10" function="internal">
        <lane id=":J0_10_0" index="0" disallow="pedestrian bicycle" speed="13.89" length="37.19" shape="18.61,1.60 9.52,0.25 1.99,-3.81 -3.97,-10.56 -8.36,-20.03"/>
    </edge>
    <edge id=":J0_11" function="internal">
        <lane id=":J0_11_0" index="0" allow="bicycle" speed="13.34" length="31.13" width="1.00" shape="-4.28,-21.39 -0.64,-13.65 4.39,-8.12 10.81,-4.81 18.61,-3.70"/>
        <lane id=":J0_11_1" index="1" disallow="pedestrian bicycle" speed="13.75" length="33.16" shape="-5.33,-21.04 -1.40,-12.53 3.90,-6.46 10.57,-2.81 18.61,-1.60"/>
    </edge>
    <edge id=":J0_13" function="internal">
        <lane id=":J0_13_0" index="0" disallow="pedestrian" speed="13.89" length="43.28" shape="-5.33,-21.04 8.36,20.03"/>
    </edge>
    <edge id=":J0_14" function="internal">
        <lane id=":J0_14_0" index="0" allow="bicycle" speed="10.89" length="33.87" width="1.00" shape="-6.37,-20.69 -4.13,-10.81 -5.01,-3.10 -9.63,1.91 -18.61,3.70"/>
        <lane id=":J0_14_1" index="1" disallow="pedestrian bicycle" speed="10.69" length="32.58" shape="-5.33,-21.04 -3.41,-11.66 -4.77,-4.53 -9.74,0.01 -18.61,1.60"/>
    </edge>
    <edge id=":J0_16" function="internal">
        <lane id=":J0_16_0" index="0" disallow="pedestrian bicycle" speed="8.85" length="21.93" shape="-18.61,-5.80 -12.35,-6.69 -8.55,-9.36 -7.22,-13.80 -8.36,-20.03"/>
        <lane id=":J0_16_1" index="1" allow="bicycle" speed="8.88" length="22.99" width="1.00" shape="-18.61,-3.70 -12.59,-4.70 -9.04,-7.69 -7.98,-12.69 -9.41,-19.68"/>
    </edge>
    <edge id=":J0_18" function="internal">
        <lane id=":J0_18_0" index="0" allow="bicycle" speed="13.89" length="37.23" width="1.00" shape="-18.61,-3.70 18.61,-3.70"/>
    </edge>
    <edge id=":J0_19" function="internal">
        <lane id=":J0_19_0" index="0" allow="bicycle" speed="13.89" length="39.23" width="1.00" shape="-18.61,-3.70 -9.28,-2.24 -1.50,2.14 4.73,9.45 9.41,19.68"/>
    </edge>
    <edge id=":J0_20" function="internal">
        <lane id=":J0_20_0" index="0" disallow="pedestrian bicycle" speed="13.89" length="37.23" shape="-18.61,-1.60 18.61,-1.60"/>
    </edge>
    <edge id=":J0_21" function="internal">
        <lane id=":J0_21_0" index="0" disallow="pedestrian bicycle" speed="13.89" length="37.19" shape="-18.61,-1.60 -9.52,-0.25 -1.99,3.81 3.97,10.56 8.36,20.03"/>
    </edge>
    <edge id=":J0_c0" function="crossing" crossingEdges="D_out D_in">
        <lane id=":J0_c0_0" index="0" allow="pedestrian" speed="2.78" length="6.40" width="4.00" shape="9.25,17.62 3.18,19.65" outlineShape="9.88,19.52 3.81,21.54 2.25,17.85 9.00,15.59 9.00,15.82"/>
    </edge>
    <edge id=":J0_c1" function="crossing" crossingEdges="C_out -E1.138">
        <lane id=":J0_c1_0" index="0" allow="pedestrian" speed="2.78" length="11.60" width="4.00" shape="16.61,-4.20 16.61,7.40" outlineShape="18.61,-4.20 18.61,7.50 14.82,7.74 14.61,7.81 14.61,-4.57"/>
    </edge>
    <edge id=":J0_c2" function="crossing" crossingEdges="B_out B_in">
        <lane id=":J0_c2_0" index="0" allow="pedestrian" speed="2.78" length="6.40" width="4.00" shape="-9.25,-17.62 -3.18,-19.65" outlineShape="-9.88,-19.52 -3.81,-21.54 -2.25,-17.85 -9.00,-15.59 -9.00,-15.82"/>
    </edge>
    <edge id=":J0_c3" function="crossing" crossingEdges="A_out -E0.112">
        <lane id=":J0_c3_0" index="0" allow="pedestrian" speed="2.78" length="11.60" width="4.00" shape="-16.61,4.20 -16.61,-7.40" outlineShape="-18.61,4.20 -18.61,-7.50 -14.82,-7.74 -14.61,-7.81 -14.61,4.57"/>
    </edge>
    <edge id=":J0_w0" function="walkingarea">
        <lane id=":J0_w0_0" index="0" allow="pedestrian" speed="2.78" length="18.20" width="4.00" shape="-18.61,4.20 -18.61,6.20 1.91,22.18 3.81,21.54 1.58,16.24 -1.25,11.91 -4.69,8.54 -8.73,6.13 -13.37,4.68"/>
    </edge>
    <edge id=":J0_w1" function="walkingarea">
        <lane id=":J0_w1_0" index="0" allow="pedestrian" speed="2.78" length="9.45" width="4.00" shape="9.88,19.52 11.78,18.89 18.61,9.40 18.61,7.40 14.82,7.74 11.97,8.75 10.04,10.43 9.05,12.79 9.00,15.82"/>
    </edge>
    <edge id=":J0_w2" function="walkingarea">
        <lane id=":J0_w2_0" index="0" allow="pedestrian" speed="2.78" length="18.20" width="4.00" shape="18.61,-4.20 18.61,-6.20 -1.91,-22.18 -3.81,-21.54 -1.58,-16.24 1.25,-11.91 4.69,-8.54 8.73,-6.13 13.37,-4.68"/>
    </edge>
    <edge id=":J0_w3" function="walkingarea">
        <lane id=":J0_w3_0" index="0" allow="pedestrian" speed="2.78" length="9.45" width="4.00" shape="-9.88,-19.52 -11.78,-18.89 -18.61,-9.40 -18.61,-7.40 -14.82,-7.74 -11.97,-8.75 -10.04,-10.43 -9.05,-12.79 -9.00,-15.82"/>
    </edge>
    <edge id=":J1_w0" function="walkingarea">
        <lane id=":J1_w0_0" index="0" allow="pedestrian" speed="2.78" length="10.40" width="2.00" shape="-200.00,-4.20 -200.00,-6.20 -200.00,6.20 -200.00,4.20"/>
    </edge>
    <edge id=":J2_w0" function="walkingarea">
        <lane id=":J2_w0_0" index="0" allow="pedestrian" speed="2.78" length="10.40" width="2.00" shape="200.00,4.20 200.00,6.20 200.00,-6.20 200.00,-4.20"/>
    </edge>
    <edge id=":J3_w0" function="walkingarea">
        <lane id=":J3_w0_0" index="0" allow="pedestrian" speed="2.78" length="8.40" width="2.00" shape="-46.96,-151.01 -45.07,-151.64 -54.93,-148.36 -53.04,-148.99"/>
    </edge>
    <edge id=":J4_w0" function="walkingarea">
        <lane id=":J4_w0_0" index="0" allow="pedestrian" speed="2.78" length="8.40" width="2.00" shape="46.96,151.01 45.07,151.64 54.93,148.36 53.04,148.99"/>
    </edge>
    <edge id=":J6_0" function="internal">
        <lane id=":J6_0_0" index="0" allow="bicycle" speed="13.89" length="8.45" width="1.00" shape="-64.00,-3.70 -56.00,-3.70"/>
        <lane id=":J6_0_1" index="1" disallow="pedestrian bicycle" speed="13.89" length="8.45" shape="-64.00,-1.60 -61.48,-2.26 -60.00,-3.70 -58.52,-5.14 -56.00,-5.80"/>
        <lane id=":J6_0_2" index="2" disallow="pedestrian bicycle" speed="13.89" length="8.45" shape="-64.00,-1.60 -56.00,-1.60"/>
    </edge>
    <edge id=":J6_w0" function="walkingarea">
        <lane id=":J6_w0_0" index="0" allow="pedestrian" speed="2.78" length="8.62" width="2.00" shape="-56.00,-7.40 -56.00,-9.40 -64.00,-6.20 -64.00,-4.20 -62.21,-4.44 -60.97,-5.03 -60.00,-5.80 -59.03,-6.57 -57.79,-7.16"/>
    </edge>
    <edge id=":J7_0" function="internal">
        <lane id=":J7_0_0" index="0" allow="bicycle" speed="13.89" length="8.45" width="1.00" shape="64.00,3.70 56.00,3.70"/>
        <lane id=":J7_0_1" index="1" disallow="pedestrian bicycle" speed="13.89" length="8.45" shape="64.00,1.60 61.48,2.26 60.00,3.70 58.52,5.14 56.00,5.80"/>
        <lane id=":J7_0_2" index="2" disallow="pedestrian bicycle" speed="13.89" length="8.45" shape="64.00,1.60 56.00,1.60"/>
    </edge>
    <edge id=":J7_w0" function="walkingarea">
        <lane id=":J7_w0_0" index="0" allow="pedestrian" speed="2.78" length="8.62" width="2.00" shape="56.00,7.40 56.00,9.40 64.00,6.20 64.00,4.20 62.21,4.44 60.97,5.03 60.00,5.80 59.03,6.57 57.79,7.16"/>
    </edge>

    <edge id="-E0.112" from="J6" to="J0" priority="10">
        <lane id="-E0.112_0" index="0" allow="pedestrian" speed="13.89" length="37.39" width="2.00" shape="-56.00,-8.40 -18.61,-8.40"/>
        <lane id="-E0.112_1" index="1" disallow="pedestrian bicycle" speed="13.89" length="37.39" shape="-56.00,-5.80 -18.61,-5.80"/>
        <lane id="-E0.112_2" index="2" allow="bicycle" speed="13.89" length="37.39" width="1.00" shape="-56.00,-3.70 -18.61,-3.70"/>
        <lane id="-E0.112_3" index="3" disallow="pedestrian bicycle" speed="13.89" length="37.39" shape="-56.00,-1.60 -18.61,-1.60"/>
    </edge>
    <edge id="-E1.138" from="J7" to="J0" priority="10">
        <lane id="-E1.138_0" index="0" allow="pedestrian" speed="13.89" length="37.39" width="2.00" shape="56.00,8.40 18.61,8.40"/>
        <lane id="-E1.138_1" index="1" disallow="pedestrian bicycle" speed="13.89" length="37.39" shape="56.00,5.80 18.61,5.80"/>
        <lane id="-E1.138_2" index="2" allow="bicycle" speed="13.89" length="37.39" width="1.00" shape="56.00,3.70 18.61,3.70"/>
        <lane id="-E1.138_3" index="3" disallow="pedestrian bicycle" speed="13.89" length="37.39" shape="56.00,1.60 18.61,1.60"/>
    </edge>
    <edge id="A_in" from="J1" to="J6" priority="-1">
        <lane id="A_in_0" index="0" allow="pedestrian" speed="13.89" length="136.00" width="2.00" shape="-200.00,-5.20 -64.00,-5.20"/>
        <lane id="A_in_1" index="1" allow="bicycle" speed="13.89" length="136.00" width="1.00" shape="-200.00,-3.70 -64.00,-3.70"/>
        <lane id="A_in_2" index="2" disallow="pedestrian bicycle" speed="13.89" length="136.00" shape="-200.00,-1.60 -64.00,-1.60"/>
    </edge>
    <edge id="A_out" from="J0" to="J1" priority="10">
        <lane id="A_out_0" index="0" allow="pedestrian" speed="13.89" length="181.39" width="2.00" shape="-18.61,5.20 -200.00,5.20"/>
        <lane id="A_out_1" index="1" allow="bicycle" speed="13.89" length="181.39" width="1.00" shape="-18.61,3.70 -200.00,3.70"/>
        <lane id="A_out_2" index="2" disallow="pedestrian bicycle" speed="13.89" length="181.39" shape="-18.61,1.60 -200.00,1.60"/>
    </edge>
    <edge id="B_in" from="J3" to="J0" priority="1">
        <lane id="B_in_0" index="0" allow="pedestrian" speed="13.89" length="136.47" width="2.00" shape="-46.02,-151.33 -2.86,-21.86"/>
        <lane id="B_in_1" index="1" disallow="pedestrian" speed="13.89" length="136.47" shape="-48.48,-150.51 -5.33,-21.04"/>
    </edge>
    <edge id="B_out" from="J0" to="J3" priority="1">
        <lane id="B_out_0" index="0" allow="pedestrian" speed="13.89" length="136.47" width="2.00" shape="-10.83,-19.20 -53.98,-148.67"/>
        <lane id="B_out_1" index="1" disallow="pedestrian" speed="13.89" length="136.47" shape="-8.36,-20.03 -51.52,-149.49"/>
    </edge>
    <edge id="C_in" from="J2" to="J7" priority="-1">
        <lane id="C_in_0" index="0" allow="pedestrian" speed="13.89" length="136.00" width="2.00" shape="200.00,5.20 64.00,5.20"/>
        <lane id="C_in_1" index="1" allow="bicycle" speed="13.89" length="136.00" width="1.00" shape="200.00,3.70 64.00,3.70"/>
        <lane id="C_in_2" index="2" disallow="pedestrian bicycle" speed="13.89" length="136.00" shape="200.00,1.60 64.00,1.60"/>
    </edge>
    <edge id="C_out" from="J0" to="J2" priority="10">
        <lane id="C_out_0" index="0" allow="pedestrian" speed="13.89" length="181.39" width="2.00" shape="18.61,-5.20 200.00,-5.20"/>
        <lane id="C_out_1" index="1" allow="bicycle" speed="13.89" length="181.39" width="1.00" shape="18.61,-3.70 200.00,-3.70"/>
        <lane id="C_out_2" index="2" disallow="pedestrian bicycle" speed="13.89" length="181.39" shape="18.61,-1.60 200.00,-1.60"/>
    </edge>
    <edge id="D_in" from="J4" to="J0" priority="1">
        <lane id="D_in_0" index="0" allow="pedestrian" speed="13.89" length="136.47" width="2.00" shape="46.02,151.33 2.86,21.86"/>
        <lane id="D_in_1" index="1" disallow="pedestrian" speed="13.89" length="136.47" shape="48.48,150.51 5.33,21.04"/>
    </edge>
    <edge id="D_out" from="J0" to="J4" priority="1">
        <lane id="D_out_0" index="0" allow="pedestrian" speed="13.89" length="136.47" width="2.00" shape="10.83,19.20 53.98,148.67"/>
        <lane id="D_out_1" index="1" disallow="pedestrian" speed="13.89" length="136.47" shape="8.36,20.03 51.52,149.49"/>
    </edge>

    <junction id="J0" type="priority" x="0.00" y="0.00" incLanes="D_in_0 D_in_1 -E1.138_0 -E1.138_1 -E1.138_2 -E1.138_3 B_in_0 B_in_1 -E0.112_0 -E0.112_1 -E0.112_2 -E0.112_3 :J0_w1_0 :J0_w2_0 :J0_w3_0 :J0_w0_0" intLanes=":J0_0_0 :J0_0_1 :J0_2_0 :J0_3_0 :J0_3_1 :J0_5_0 :J0_5_1 :J0_7_0 :J0_8_0 :J0_9_0 :J0_10_0 :J0_11_0 :J0_11_1 :J0_13_0 :J0_14_0 :J0_14_1 :J0_16_0 :J0_16_1 :J0_18_0 :J0_19_0 :J0_20_0 :J0_21_0 :J0_c0_0 :J0_c1_0 :J0_c2_0 :J0_c3_0" shape="1.91,22.18 11.78,18.89 11.09,15.99 11.13,13.62 11.91,11.77 13.41,10.45 15.65,9.66 18.61,9.40 18.61,-6.20 13.82,-6.64 9.58,-7.98 5.88,-10.19 2.74,-13.30 0.14,-17.29 -1.91,-22.18 -11.78,-18.89 -11.09,-15.99 -11.13,-13.62 -11.91,-11.77 -13.41,-10.45 -15.65,-9.66 -18.61,-9.40 -18.61,6.20 -13.82,6.64 -9.58,7.98 -5.88,10.19 -2.74,13.30 -0.14,17.29" radius="10.00">
        <request index="0"  response="10010000000000000010000000" foes="10010000000100000010000000" cont="0"/>
        <request index="1"  response="10010000000000001010000000" foes="10010000001100001010000000" cont="0"/>
        <request index="2"  response="01011111110000011110000000" foes="01011111111100011110000000" cont="0"/>
        <request index="3"  response="00111111000011111110000000" foes="00111111000011111110000000" cont="0"/>
        <request index="4"  response="00111110000011011110000000" foes="00111110000011011110000000" cont="0"/>
        <request index="5"  response="00110000000000000000000000" foes="00111010000010000001000000" cont="0"/>
        <request index="6"  response="00110000000000000000100000" foes="00111010000010000000100000" cont="0"/>
        <request index="7"  response="10100000000000000000000000" foes="10101010000110000000011111" cont="0"/>
        <request index="8"  response="01100101110000011000000000" foes="01100101111110011000011100" cont="0"/>
        <request index="9"  response="10100000000000000000000000" foes="10101010001110000100011110" cont="0"/>
        <request index="10" response="01100101110000000000000000" foes="01100101111110000100011100" cont="0"/>
        <request index="11" response="01100001000000000000000000" foes="01100001000000000000001000" cont="0"/>
        <request index="12" response="01100101000000000000000000" foes="01100101000000000000011000" cont="0"/>
        <request index="13" response="01011111000000011111100000" foes="01011111000000011111111000" cont="0"/>
        <request index="14" response="11001111000000011110000111" foes="11001111000000011110000111" cont="0"/>
        <request index="15" response="11001111000000011100000110" foes="11001111000000011100000110" cont="0"/>
        <request index="16" response="11000000000000000000000000" foes="11000000100000010100000100" cont="0"/>
        <request index="17" response="11000000010000000000000000" foes="11000000010000010100000100" cont="0"/>
        <request index="18" response="10100000000000000000000000" foes="10100000001111110100001100" cont="0"/>
        <request index="19" response="10011100000000001011100000" foes="10011100001110001011111100" cont="0"/>
        <request index="20" response="10100000000000000000000000" foes="10100010001111010100011100" cont="0"/>
        <request index="21" response="10010000000000001011100000" foes="10010010001110001011111100" cont="0"/>
        <request index="22" response="00000000000000000000000000" foes="00001010000010000001111111" cont="0"/>
        <request index="23" response="00000000000000000000000000" foes="00000101000001111111111000" cont="0"/>
        <request index="24" response="00000000000000000000000000" foes="00000000111111110100000100" cont="0"/>
        <request index="25" response="00000000000000000000000000" foes="00001111111100001010000011" cont="0"/>
    </junction>
    <junction id="J1" type="dead_end" x="-200.00" y="0.00" incLanes="A_out_0 A_out_1 A_out_2" intLanes="" shape="-200.00,0.00 -200.00,6.20 -200.00,0.00"/>
    <junction id="J2" type="dead_end" x="200.00" y="0.00" incLanes="C_out_0 C_out_1 C_out_2" intLanes="" shape="200.00,0.00 200.00,-6.20 200.00,0.00"/>
    <junction id="J3" type="dead_end" x="-50.00" y="-150.00" incLanes="B_out_0 B_out_1" intLanes="" shape="-50.00,-150.00 -54.93,-148.36 -50.00,-150.00"/>
    <junction id="J4" type="dead_end" x="50.00" y="150.00" incLanes="D_out_0 D_out_1" intLanes="" shape="50.00,150.00 54.93,148.36 50.00,150.00"/>
    <junction id="J6" type="priority" x="-60.00" y="0.00" incLanes="A_in_0 A_in_1 A_in_2" intLanes=":J6_0_0 :J6_0_1 :J6_0_2" shape="-56.00,0.00 -56.00,-9.40 -59.03,-8.57 -60.97,-7.03 -62.21,-6.44 -64.00,-6.20 -64.00,0.00">
        <request index="0" response="010" foes="010" cont="0"/>
        <request index="1" response="000" foes="001" cont="0"/>
        <request index="2" response="000" foes="000" cont="0"/>
    </junction>
    <junction id="J7" type="priority" x="60.00" y="0.00" incLanes="C_in_0 C_in_1 C_in_2" intLanes=":J7_0_0 :J7_0_1 :J7_0_2" shape="64.00,6.20 64.00,0.00 56.00,0.00 56.00,9.40 59.03,8.57 60.97,7.03 62.21,6.44">
        <request index="0" response="010" foes="010" cont="0"/>
        <request index="1" response="000" foes="001" cont="0"/>
        <request index="2" response="000" foes="000" cont="0"/>
    </junction>

    <connection from="-E0.112" to="B_out" fromLane="1" toLane="1" via=":J0_16_0" dir="r" state="m"/>
    <connection from="-E0.112" to="B_out" fromLane="2" toLane="1" via=":J0_16_1" dir="r" state="m"/>
    <connection from="-E0.112" to="C_out" fromLane="2" toLane="1" via=":J0_18_0" dir="s" state="m"/>
    <connection from="-E0.112" to="D_out" fromLane="2" toLane="1" via=":J0_19_0" dir="l" state="m"/>
    <connection from="-E0.112" to="C_out" fromLane="3" toLane="2" via=":J0_20_0" dir="s" state="m"/>
    <connection from="-E0.112" to="D_out" fromLane="3" toLane="1" via=":J0_21_0" dir="l" state="m"/>
    <connection from="-E1.138" to="D_out" fromLane="1" toLane="1" via=":J0_5_0" dir="r" state="m"/>
    <connection from="-E1.138" to="D_out" fromLane="2" toLane="1" via=":J0_5_1" dir="r" state="m"/>
    <connection from="-E1.138" to="A_out" fromLane="2" toLane="1" via=":J0_7_0" dir="s" state="m"/>
    <connection from="-E1.138" to="B_out" fromLane="2" toLane="1" via=":J0_8_0" dir="l" state="m"/>
    <connection from="-E1.138" to="A_out" fromLane="3" toLane="2" via=":J0_9_0" dir="s" state="m"/>
    <connection from="-E1.138" to="B_out" fromLane="3" toLane="1" via=":J0_10_0" dir="l" state="m"/>
    <connection from="A_in" to="-E0.112" fromLane="1" toLane="2" via=":J6_0_0" dir="s" state="m"/>
    <connection from="A_in" to="-E0.112" fromLane="2" toLane="1" via=":J6_0_1" dir="s" state="M"/>
    <connection from="A_in" to="-E0.112" fromLane="2" toLane="3" via=":J6_0_2" dir="s" state="M"/>
    <connection from="B_in" to="C_out" fromLane="1" toLane="1" via=":J0_11_0" dir="r" state="m"/>
    <connection from="B_in" to="C_out" fromLane="1" toLane="2" via=":J0_11_1" dir="r" state="m"/>
    <connection from="B_in" to="D_out" fromLane="1" toLane="1" via=":J0_13_0" dir="s" state="m"/>
    <connection from="B_in" to="A_out" fromLane="1" toLane="1" via=":J0_14_0" dir="l" state="m"/>
    <connection from="B_in" to="A_out" fromLane="1" toLane="2" via=":J0_14_1" dir="l" state="m"/>
    <connection from="C_in" to="-E1.138" fromLane="1" toLane="2" via=":J7_0_0" dir="s" state="m"/>
    <connection from="C_in" to="-E1.138" fromLane="2" toLane="1" via=":J7_0_1" dir="s" state="M"/>
    <connection from="C_in" to="-E1.138" fromLane="2" toLane="3" via=":J7_0_2" dir="s" state="M"/>
    <connection from="D_in" to="A_out" fromLane="1" toLane="1" via=":J0_0_0" dir="r" state="m"/>
    <connection from="D_in" to="A_out" fromLane="1" toLane="2" via=":J0_0_1" dir="r" state="m"/>
    <connection from="D_in" to="B_out" fromLane="1" toLane="1" via=":J0_2_0" dir="s" state="m"/>
    <connection from="D_in" to="C_out" fromLane="1" toLane="1" via=":J0_3_0" dir="l" state="m"/>
    <connection from="D_in" to="C_out" fromLane="1" toLane="2" via=":J0_3_1" dir="l" state="m"/>

    <connection from=":J0_0" to="A_out" fromLane="0" toLane="1" dir="r" state="M"/>
    <connection from=":J0_0" to="A_out" fromLane="1" toLane="2" dir="r" state="M"/>
    <connection from=":J0_2" to="B_out" fromLane="0" toLane="1" dir="s" state="M"/>
    <connection from=":J0_3" to="C_out" fromLane="0" toLane="1" dir="l" state="M"/>
    <connection from=":J0_3" to="C_out" fromLane="1" toLane="2" dir="l" state="M"/>
    <connection from=":J0_5" to="D_out" fromLane="0" toLane="1" dir="r" state="M"/>
    <connection from=":J0_5" to="D_out" fromLane="1" toLane="1" dir="r" state="M"/>
    <connection from=":J0_7" to="A_out" fromLane="0" toLane="1" dir="s" state="M"/>
    <connection from=":J0_8" to="B_out" fromLane="0" toLane="1" dir="l" state="M"/>
    <connection from=":J0_9" to="A_out" fromLane="0" toLane="2" dir="s" state="M"/>
    <connection from=":J0_10" to="B_out" fromLane="0" toLane="1" dir="l" state="M"/>
    <connection from=":J0_11" to="C_out" fromLane="0" toLane="1" dir="r" state="M"/>
    <connection from=":J0_11" to="C_out" fromLane="1" toLane="2" dir="r" state="M"/>
    <connection from=":J0_13" to="D_out" fromLane="0" toLane="1" dir="s" state="M"/>
    <connection from=":J0_14" to="A_out" fromLane="0" toLane="1" dir="l" state="M"/>
    <connection from=":J0_14" to="A_out" fromLane="1" toLane="2" dir="l" state="M"/>
    <connection from=":J0_16" to="B_out" fromLane="0" toLane="1" dir="r" state="M"/>
    <connection from=":J0_16" to="B_out" fromLane="1" toLane="1" dir="r" state="M"/>
    <connection from=":J0_18" to="C_out" fromLane="0" toLane="1" dir="s" state="M"/>
    <connection from=":J0_19" to="D_out" fromLane="0" toLane="1" dir="l" state="M"/>
    <connection from=":J0_20" to="C_out" fromLane="0" toLane="2" dir="s" state="M"/>
    <connection from=":J0_21" to="D_out" fromLane="0" toLane="1" dir="l" state="M"/>
    <connection from=":J6_0" to="-E0.112" fromLane="0" toLane="2" dir="s" state="M"/>
    <connection from=":J6_0" to="-E0.112" fromLane="1" toLane="1" dir="s" state="M"/>
    <connection from=":J6_0" to="-E0.112" fromLane="2" toLane="3" dir="s" state="M"/>
    <connection from=":J7_0" to="-E1.138" fromLane="0" toLane="2" dir="s" state="M"/>
    <connection from=":J7_0" to="-E1.138" fromLane="1" toLane="1" dir="s" state="M"/>
    <connection from=":J7_0" to="-E1.138" fromLane="2" toLane="3" dir="s" state="M"/>

    <connection from=":J0_c0" to=":J0_w0" fromLane="0" toLane="0" dir="s" state="M"/>
    <connection from=":J0_c1" to=":J0_w1" fromLane="0" toLane="0" dir="s" state="M"/>
    <connection from=":J0_c2" to=":J0_w2" fromLane="0" toLane="0" dir="s" state="M"/>
    <connection from=":J0_c3" to=":J0_w3" fromLane="0" toLane="0" dir="s" state="M"/>
    <connection from=":J0_w0" to=":J0_c3" fromLane="0" toLane="0" dir="s" state="M"/>
    <connection from=":J0_w0" to="A_out" fromLane="0" toLane="0" dir="s" state="M"/>
    <connection from="D_in" to=":J0_w0" fromLane="0" toLane="0" dir="s" state="M"/>
    <connection from=":J0_w1" to=":J0_c0" fromLane="0" toLane="0" dir="s" state="M"/>
    <connection from=":J0_w1" to="D_out" fromLane="0" toLane="0" dir="s" state="M"/>
    <connection from="-E1.138" to=":J0_w1" fromLane="0" toLane="0" dir="s" state="M"/>
    <connection from=":J0_w2" to=":J0_c1" fromLane="0" toLane="0" dir="s" state="M"/>
    <connection from=":J0_w2" to="C_out" fromLane="0" toLane="0" dir="s" state="M"/>
    <connection from="B_in" to=":J0_w2" fromLane="0" toLane="0" dir="s" state="M"/>
    <connection from=":J0_w3" to=":J0_c2" fromLane="0" toLane="0" dir="s" state="M"/>
    <connection from=":J0_w3" to="B_out" fromLane="0" toLane="0" dir="s" state="M"/>
    <connection from="-E0.112" to=":J0_w3" fromLane="0" toLane="0" dir="s" state="M"/>
    <connection from=":J1_w0" to="A_in" fromLane="0" toLane="0" dir="s" state="M"/>
    <connection from="A_out" to=":J1_w0" fromLane="0" toLane="0" dir="s" state="M"/>
    <connection from=":J2_w0" to="C_in" fromLane="0" toLane="0" dir="s" state="M"/>
    <connection from="C_out" to=":J2_w0" fromLane="0" toLane="0" dir="s" state="M"/>
    <connection from=":J3_w0" to="B_in" fromLane="0" toLane="0" dir="s" state="M"/>
    <connection from="B_out" to=":J3_w0" fromLane="0" toLane="0" dir="s" state="M"/>
    <connection from=":J4_w0" to="D_in" fromLane="0" toLane="0" dir="s" state="M"/>
    <connection from="D_out" to=":J4_w0" fromLane="0" toLane="0" dir="s" state="M"/>
    <connection from=":J6_w0" to="-E0.112" fromLane="0" toLane="0" dir="s" state="M"/>
    <connection from="A_in" to=":J6_w0" fromLane="0" toLane="0" dir="s" state="M"/>
    <connection from=":J7_w0" to="-E1.138" fromLane="0" toLane="0" dir="s" state="M"/>
    <connection from="C_in" to=":J7_w0" fromLane="0" toLane="0" dir="s" state="M"/>
</net>
