<?xml version="1.0" encoding="UTF-8"?>

<!-- generated on 2025-02-10 16:46:15 by Eclipse SUMO netedit Version 1.21.0
<neteditConfiguration xmlns:xsi="http://www.w3.org/2001/XMLSchema-instance" xsi:noNamespaceSchemaLocation="http://sumo.dlr.de/xsd/neteditConfiguration.xsd">

    <input>
        <sumocfg-file value="C:\Users\Ali Rockaya\Desktop\Random\12 - Traffic light mode\12.sumocfg"/>
        <additional-files value="C:\Users\Ali Rockaya\Desktop\Random\12 - Traffic light mode\12.add.xml"/>
        <route-files value="C:\Users\Ali Rockaya\Desktop\Random\12 - Traffic light mode\12.rou.xml"/>
        <data-files value="C:\Users\Ali Rockaya\Desktop\Random\12 - Traffic light mode\12.dat.xml"/>
        <sumo-net-file value="C:\Users\Ali Rockaya\Desktop\Random\12 - Traffic light mode\Variant12_p40.net.xml"/>
    </input>

    <output>
        <output-file value="C:\Users\Ali Rockaya\Desktop\Random\12 - Traffic light mode\Variant12_p40.net.xml"/>
    </output>

    <processing>
        <geometry.min-radius.fix.railways value="false"/>
        <geometry.max-grade.fix value="false"/>
        <offset.disable-normalization value="true"/>
        <lefthand value="0"/>
    </processing>

    <junctions>
        <no-internal-links value="false"/>
        <no-turnarounds value="true"/>
        <junctions.corner-detail value="5"/>
        <junctions.limit-turn-speed value="5.50"/>
        <rectangular-lane-cut value="0"/>
    </junctions>

    <pedestrian>
        <walkingareas value="0"/>
    </pedestrian>

</neteditConfiguration>
-->

<net version="1.20" junctionCornerDetail="5" limitTurnSpeed="5.50" xmlns:xsi="http://www.w3.org/2001/XMLSchema-instance" xsi:noNamespaceSchemaLocation="http://sumo.dlr.de/xsd/net_file.xsd">

    <location netOffset="0.00,0.00" convBoundary="-200.00,-200.00,200.00,200.00" origBoundary="-10000000000.00,-10000000000.00,10000000000.00,10000000000.00" projParameter="!"/>

    <edge id=":J0_w0" function="walkingarea">
        <lane id=":J0_w0_0" index="0" allow="pedestrian" speed="2.78" length="14.80" width="2.00" shape="-200.00,-6.40 -200.00,-8.40 -200.00,8.40 -200.00,6.40"/>
    </edge>
    <edge id=":J1_0" function="internal">
        <lane id=":J1_0_0" index="0" disallow="pedestrian" speed="6.51" length="9.03" shape="-21.60,10.40 -21.95,7.95 -23.00,6.20 -24.75,5.15 -27.20,4.80"/>
    </edge>
    <edge id=":J1_1" function="internal">
        <lane id=":J1_1_0" index="0" disallow="pedestrian" speed="13.89" length="46.25" shape="-21.60,10.40 -15.35,4.34 -1.60,0.00 12.15,-4.34 18.40,-10.40"/>
    </edge>
    <edge id=":J1_2" function="internal">
        <lane id=":J1_2_0" index="0" disallow="pedestrian" speed="13.89" length="9.32" shape="-21.60,10.40 -15.23,7.18 -13.12,6.61"/>
    </edge>
    <edge id=":J1_14" function="internal">
        <lane id=":J1_14_0" index="0" disallow="pedestrian" speed="13.89" length="41.21" shape="-13.12,6.61 -0.53,3.21 15.82,-0.17 27.20,-1.60"/>
    </edge>
    <edge id=":J1_3" function="internal">
        <lane id=":J1_3_0" index="0" disallow="pedestrian" speed="13.89" length="46.73" shape="27.20,4.80 7.25,5.15 -7.00,6.20 -15.55,7.95 -18.40,10.40"/>
    </edge>
    <edge id=":J1_4" function="internal">
        <lane id=":J1_4_0" index="0" disallow="pedestrian" speed="13.89" length="54.40" shape="27.20,4.80 -27.20,4.80"/>
        <lane id=":J1_4_1" index="1" disallow="pedestrian" speed="13.89" length="54.40" shape="27.20,1.60 -27.20,1.60"/>
    </edge>
    <edge id=":J1_6" function="internal">
        <lane id=":J1_6_0" index="0" disallow="pedestrian" speed="8.67" length="3.71" shape="27.20,1.60 23.56,0.89"/>
    </edge>
    <edge id=":J1_15" function="internal">
        <lane id=":J1_15_0" index="0" disallow="pedestrian" speed="8.67" length="13.14" shape="23.56,0.89 23.35,0.85 20.60,-1.40 18.95,-5.15 18.40,-10.40"/>
    </edge>
    <edge id=":J1_7" function="internal">
        <lane id=":J1_7_0" index="0" disallow="pedestrian" speed="6.51" length="9.03" shape="21.60,-10.40 21.95,-7.95 23.00,-6.20 24.75,-5.15 27.20,-4.80"/>
    </edge>
    <edge id=":J1_8" function="internal">
        <lane id=":J1_8_0" index="0" disallow="pedestrian" speed="13.89" length="46.25" shape="21.60,-10.40 15.35,-4.34 1.60,0.00 -12.15,4.34 -18.40,10.40"/>
    </edge>
    <edge id=":J1_9" function="internal">
        <lane id=":J1_9_0" index="0" disallow="pedestrian" speed="13.89" length="9.32" shape="21.60,-10.40 15.23,-7.18 13.12,-6.61"/>
    </edge>
    <edge id=":J1_16" function="internal">
        <lane id=":J1_16_0" index="0" disallow="pedestrian" speed="13.89" length="41.21" shape="13.12,-6.61 0.53,-3.21 -15.82,0.17 -27.20,1.60"/>
    </edge>
    <edge id=":J1_10" function="internal">
        <lane id=":J1_10_0" index="0" disallow="pedestrian" speed="13.89" length="46.73" shape="-27.20,-4.80 -7.25,-5.15 7.00,-6.20 15.55,-7.95 18.40,-10.40"/>
    </edge>
    <edge id=":J1_11" function="internal">
        <lane id=":J1_11_0" index="0" disallow="pedestrian" speed="13.89" length="54.40" shape="-27.20,-4.80 27.20,-4.80"/>
        <lane id=":J1_11_1" index="1" disallow="pedestrian" speed="13.89" length="54.40" shape="-27.20,-1.60 27.20,-1.60"/>
    </edge>
    <edge id=":J1_13" function="internal">
        <lane id=":J1_13_0" index="0" disallow="pedestrian" speed="8.67" length="3.71" shape="-27.20,-1.60 -23.56,-0.89"/>
    </edge>
    <edge id=":J1_17" function="internal">
        <lane id=":J1_17_0" index="0" disallow="pedestrian" speed="8.67" length="13.14" shape="-23.56,-0.89 -23.35,-0.85 -20.60,1.40 -18.95,5.15 -18.40,10.40"/>
    </edge>
    <edge id=":J1_c0" function="crossing" crossingEdges="D_out D_in">
        <lane id=":J1_c0_0" index="0" allow="pedestrian" speed="2.78" length="6.40" width="4.00" shape="-16.80,8.40 -23.20,8.40" outlineShape="-16.80,10.40 -23.20,10.40 -23.31,9.18 -23.64,8.18 -24.20,7.40 -24.98,6.84 -25.31,6.73 -23.20,6.40 -16.80,6.40 -14.15,8.79 -15.58,9.18"/>
    </edge>
    <edge id=":J1_c1" function="crossing" crossingEdges="B_out B_in">
        <lane id=":J1_c1_0" index="0" allow="pedestrian" speed="2.78" length="6.40" width="4.00" shape="16.80,-8.40 23.20,-8.40" outlineShape="16.80,-10.40 23.20,-10.40 23.31,-9.18 23.64,-8.18 24.20,-7.40 24.98,-6.84 25.31,-6.73 23.20,-6.40 16.80,-6.40 14.15,-8.79 15.58,-9.18"/>
    </edge>
    <edge id=":J1_w0" function="walkingarea">
        <lane id=":J1_w0_0" index="0" allow="pedestrian" speed="2.78" length="3.53" width="4.00" shape="-27.20,6.40 -27.20,8.40 -25.20,10.40 -23.20,10.40 -23.31,9.18 -23.64,8.18 -24.20,7.40 -24.98,6.84 -25.98,6.51"/>
    </edge>
    <edge id=":J1_w1" function="walkingarea">
        <lane id=":J1_w1_0" index="0" allow="pedestrian" speed="2.78" length="29.78" width="4.00" shape="-16.80,10.40 -14.80,10.40 27.20,8.40 27.20,6.40 13.76,6.51 2.76,6.84 -5.80,7.40 -11.91,8.18 -15.58,9.18"/>
    </edge>
    <edge id=":J1_w2" function="walkingarea">
        <lane id=":J1_w2_0" index="0" allow="pedestrian" speed="2.78" length="3.53" width="4.00" shape="27.20,-6.40 27.20,-8.40 25.20,-10.40 23.20,-10.40 23.31,-9.18 23.64,-8.18 24.20,-7.40 24.98,-6.84 25.98,-6.51"/>
    </edge>
    <edge id=":J1_w3" function="walkingarea">
        <lane id=":J1_w3_0" index="0" allow="pedestrian" speed="2.78" length="29.78" width="4.00" shape="16.80,-10.40 14.80,-10.40 -27.20,-8.40 -27.20,-6.40 -13.76,-6.51 -2.76,-6.84 5.80,-7.40 11.91,-8.18 15.58,-9.18"/>
    </edge>
    <edge id=":J2_w0" function="walkingarea">
        <lane id=":J2_w0_0" index="0" allow="pedestrian" speed="2.78" length="14.80" width="2.00" shape="200.00,6.40 200.00,8.40 200.00,-8.40 200.00,-6.40"/>
    </edge>
    <edge id=":J3_w0" function="walkingarea">
        <lane id=":J3_w0_0" index="0" allow="pedestrian" speed="2.78" length="8.40" width="2.00" shape="-23.20,200.00 -25.20,200.00 -14.80,200.00 -16.80,200.00"/>
    </edge>
    <edge id=":J4_w0" function="walkingarea">
        <lane id=":J4_w0_0" index="0" allow="pedestrian" speed="2.78" length="8.40" width="2.00" shape="23.20,-200.00 25.20,-200.00 14.80,-200.00 16.80,-200.00"/>
    </edge>

    <edge id="A_in" from="J0" to="J1" priority="5">
        <lane id="A_in_0" index="0" allow="pedestrian" speed="13.89" length="172.80" width="2.00" shape="-200.00,-7.40 -27.20,-7.40"/>
        <lane id="A_in_1" index="1" disallow="pedestrian" speed="13.89" length="172.80" shape="-200.00,-4.80 -27.20,-4.80"/>
        <lane id="A_in_2" index="2" disallow="pedestrian" speed="13.89" length="172.80" shape="-200.00,-1.60 -27.20,-1.60"/>
    </edge>
    <edge id="A_out" from="J1" to="J0" priority="5">
        <lane id="A_out_0" index="0" allow="pedestrian" speed="13.89" length="172.80" width="2.00" shape="-27.20,7.40 -200.00,7.40"/>
        <lane id="A_out_1" index="1" disallow="pedestrian" speed="13.89" length="172.80" shape="-27.20,4.80 -200.00,4.80"/>
        <lane id="A_out_2" index="2" disallow="pedestrian" speed="13.89" length="172.80" shape="-27.20,1.60 -200.00,1.60"/>
    </edge>
    <edge id="B_in" from="J4" to="J1" priority="1" shape="20.00,-200.00 20.00,0.00">
        <lane id="B_in_0" index="0" allow="pedestrian" speed="13.89" length="189.60" width="2.00" shape="24.20,-200.00 24.20,-10.40"/>
        <lane id="B_in_1" index="1" disallow="pedestrian" speed="13.89" length="189.60" shape="21.60,-200.00 21.60,-10.40"/>
    </edge>
    <edge id="B_out" from="J1" to="J4" priority="1" shape="20.00,0.00 20.00,-200.00">
        <lane id="B_out_0" index="0" allow="pedestrian" speed="13.89" length="189.60" width="2.00" shape="15.80,-10.40 15.80,-200.00"/>
        <lane id="B_out_1" index="1" disallow="pedestrian" speed="13.89" length="189.60" shape="18.40,-10.40 18.40,-200.00"/>
    </edge>
    <edge id="C_in" from="J2" to="J1" priority="5">
        <lane id="C_in_0" index="0" allow="pedestrian" speed="13.89" length="172.80" width="2.00" shape="200.00,7.40 27.20,7.40"/>
        <lane id="C_in_1" index="1" disallow="pedestrian" speed="13.89" length="172.80" shape="200.00,4.80 27.20,4.80"/>
        <lane id="C_in_2" index="2" disallow="pedestrian" speed="13.89" length="172.80" shape="200.00,1.60 27.20,1.60"/>
    </edge>
    <edge id="C_out" from="J1" to="J2" priority="5">
        <lane id="C_out_0" index="0" allow="pedestrian" speed="13.89" length="172.80" width="2.00" shape="27.20,-7.40 200.00,-7.40"/>
        <lane id="C_out_1" index="1" disallow="pedestrian" speed="13.89" length="172.80" shape="27.20,-4.80 200.00,-4.80"/>
        <lane id="C_out_2" index="2" disallow="pedestrian" speed="13.89" length="172.80" shape="27.20,-1.60 200.00,-1.60"/>
    </edge>
    <edge id="D_in" from="J3" to="J1" priority="1" shape="-20.00,200.00 -20.00,0.00">
        <lane id="D_in_0" index="0" allow="pedestrian" speed="13.89" length="189.60" width="2.00" shape="-24.20,200.00 -24.20,10.40"/>
        <lane id="D_in_1" index="1" disallow="pedestrian" speed="13.89" length="189.60" shape="-21.60,200.00 -21.60,10.40"/>
    </edge>
    <edge id="D_out" from="J1" to="J3" priority="1" shape="-20.00,0.00 -20.00,200.00">
        <lane id="D_out_0" index="0" allow="pedestrian" speed="13.89" length="189.60" width="2.00" shape="-15.80,10.40 -15.80,200.00"/>
        <lane id="D_out_1" index="1" disallow="pedestrian" speed="13.89" length="189.60" shape="-18.40,10.40 -18.40,200.00"/>
    </edge>

    <tlLogic id="J1" type="static" programID="0" offset="0">
        <phase duration="36" state="rrrgGGgrrrgGGgGG"/>
        <phase duration="5"  state="rrrgGGgrrrgGGgrr"/>
        <phase duration="3"  state="rrryyyyrrryyyyrr"/>
        <phase duration="1"  state="rrrrrrrrrrrrrrrr"/>
        <phase duration="41" state="GGgrrrrGGgrrrrrr"/>
        <phase duration="3"  state="yyyrrrryyyrrrrrr"/>
        <phase duration="1"  state="rrrrrrrrrrrrrrrr"/>
    </tlLogic>

    <junction id="J0" type="dead_end" x="-200.00" y="0.00" incLanes="A_out_0 A_out_1 A_out_2" intLanes="" shape="-200.00,0.00 -200.00,8.40 -200.00,0.00"/>
    <junction id="J1" type="traffic_light" x="0.00" y="0.00" incLanes="D_in_0 D_in_1 C_in_0 C_in_1 C_in_2 B_in_0 B_in_1 A_in_0 A_in_1 A_in_2 :J1_w1_0 :J1_w3_0" intLanes=":J1_0_0 :J1_1_0 :J1_14_0 :J1_3_0 :J1_4_0 :J1_4_1 :J1_15_0 :J1_7_0 :J1_8_0 :J1_16_0 :J1_10_0 :J1_11_0 :J1_11_1 :J1_17_0 :J1_c0_0 :J1_c1_0" shape="-25.20,10.40 -14.80,10.40 -10.13,9.29 -4.30,8.90 3.87,8.62 14.37,8.46 27.20,8.40 27.20,-8.40 26.09,-8.62 25.70,-8.90 25.42,-9.29 25.26,-9.79 25.20,-10.40 14.80,-10.40 10.13,-9.29 4.30,-8.90 -3.87,-8.62 -14.37,-8.46 -27.20,-8.40 -27.20,8.40 -26.09,8.62 -25.70,8.90 -25.42,9.29 -25.26,9.79">
        <request index="0"  response="0100000000110000" foes="0100000000110000" cont="0"/>
        <request index="1"  response="1111110001110000" foes="1111111001110000" cont="0"/>
        <request index="2"  response="0111100101110000" foes="0111100101110000" cont="1"/>
        <request index="3"  response="0100000000000000" foes="0110000100000000" cont="0"/>
        <request index="4"  response="0000001000000100" foes="0010001100000111" cont="0"/>
        <request index="5"  response="0000001000000100" foes="0010001100000111" cont="0"/>
        <request index="6"  response="1001111000000100" foes="1001111100000110" cont="1"/>
        <request index="7"  response="1001100000000000" foes="1001100000000000" cont="0"/>
        <request index="8"  response="1111100001111000" foes="1111100001111100" cont="0"/>
        <request index="9"  response="1011100001110010" foes="1011100001110010" cont="1"/>
        <request index="10" response="1000000000000000" foes="1000000001000010" cont="0"/>
        <request index="11" response="0000001000000100" foes="0000001111000110" cont="0"/>
        <request index="12" response="0000001000000100" foes="0000001111000110" cont="0"/>
        <request index="13" response="0100001000111100" foes="0100001100111110" cont="1"/>
        <request index="14" response="0000000000000000" foes="0010000100001111" cont="0"/>
        <request index="15" response="0000000000000000" foes="0000011111000010" cont="0"/>
    </junction>
    <junction id="J2" type="dead_end" x="200.00" y="0.00" incLanes="C_out_0 C_out_1 C_out_2" intLanes="" shape="200.00,0.00 200.00,-8.40 200.00,0.00"/>
    <junction id="J3" type="dead_end" x="-20.00" y="200.00" incLanes="D_out_0 D_out_1" intLanes="" shape="-20.00,200.00 -14.80,200.00 -20.00,200.00"/>
    <junction id="J4" type="dead_end" x="20.00" y="-200.00" incLanes="B_out_0 B_out_1" intLanes="" shape="20.00,-200.00 14.80,-200.00 20.00,-200.00"/>

    <junction id=":J1_14_0" type="internal" x="-13.12" y="6.61" incLanes=":J1_2_0 B_in_1" intLanes=":J1_4_0 :J1_4_1 :J1_6_0 :J1_7_0 :J1_8_0 :J1_11_0 :J1_11_1 :J1_13_0 :J1_c0_0"/>
    <junction id=":J1_15_0" type="internal" x="23.56" y="0.89" incLanes=":J1_6_0 A_in_1 A_in_2" intLanes=":J1_1_0 :J1_2_0 :J1_8_0 :J1_9_0 :J1_10_0 :J1_11_0 :J1_11_1 :J1_c1_0"/>
    <junction id=":J1_16_0" type="internal" x="13.12" y="-6.61" incLanes=":J1_9_0 D_in_1" intLanes=":J1_0_0 :J1_1_0 :J1_4_0 :J1_4_1 :J1_6_0 :J1_11_0 :J1_11_1 :J1_13_0 :J1_c1_0"/>
    <junction id=":J1_17_0" type="internal" x="-23.56" y="-0.89" incLanes=":J1_13_0 C_in_1 C_in_2" intLanes=":J1_1_0 :J1_2_0 :J1_3_0 :J1_4_0 :J1_4_1 :J1_8_0 :J1_9_0 :J1_c0_0"/>

    <connection from="A_in" to="B_out" fromLane="1" toLane="1" via=":J1_10_0" tl="J1" linkIndex="10" dir="r" state="o"/>
    <connection from="A_in" to="C_out" fromLane="1" toLane="1" via=":J1_11_0" tl="J1" linkIndex="11" dir="s" state="O"/>
    <connection from="A_in" to="C_out" fromLane="2" toLane="2" via=":J1_11_1" tl="J1" linkIndex="12" dir="s" state="O"/>
    <connection from="A_in" to="D_out" fromLane="2" toLane="1" via=":J1_13_0" tl="J1" linkIndex="13" dir="l" state="o"/>
    <connection from="B_in" to="C_out" fromLane="1" toLane="1" via=":J1_7_0" tl="J1" linkIndex="7" dir="r" state="o"/>
    <connection from="B_in" to="D_out" fromLane="1" toLane="1" via=":J1_8_0" tl="J1" linkIndex="8" dir="s" state="o"/>
    <connection from="B_in" to="A_out" fromLane="1" toLane="2" via=":J1_9_0" tl="J1" linkIndex="9" dir="l" state="o"/>
    <connection from="C_in" to="D_out" fromLane="1" toLane="1" via=":J1_3_0" tl="J1" linkIndex="3" dir="r" state="o"/>
    <connection from="C_in" to="A_out" fromLane="1" toLane="1" via=":J1_4_0" tl="J1" linkIndex="4" dir="s" state="O"/>
    <connection from="C_in" to="A_out" fromLane="2" toLane="2" via=":J1_4_1" tl="J1" linkIndex="5" dir="s" state="O"/>
    <connection from="C_in" to="B_out" fromLane="2" toLane="1" via=":J1_6_0" tl="J1" linkIndex="6" dir="l" state="o"/>
    <connection from="D_in" to="A_out" fromLane="1" toLane="1" via=":J1_0_0" tl="J1" linkIndex="0" dir="r" state="o"/>
    <connection from="D_in" to="B_out" fromLane="1" toLane="1" via=":J1_1_0" tl="J1" linkIndex="1" dir="s" state="o"/>
    <connection from="D_in" to="C_out" fromLane="1" toLane="2" via=":J1_2_0" tl="J1" linkIndex="2" dir="l" state="o"/>

    <connection from=":J1_0" to="A_out" fromLane="0" toLane="1" dir="r" state="M"/>
    <connection from=":J1_1" to="B_out" fromLane="0" toLane="1" dir="s" state="M"/>
    <connection from=":J1_2" to="C_out" fromLane="0" toLane="2" via=":J1_14_0" dir="l" state="m"/>
    <connection from=":J1_14" to="C_out" fromLane="0" toLane="2" dir="l" state="M"/>
    <connection from=":J1_3" to="D_out" fromLane="0" toLane="1" dir="r" state="M"/>
    <connection from=":J1_4" to="A_out" fromLane="0" toLane="1" dir="s" state="M"/>
    <connection from=":J1_4" to="A_out" fromLane="1" toLane="2" dir="s" state="M"/>
    <connection from=":J1_6" to="B_out" fromLane="0" toLane="1" via=":J1_15_0" dir="l" state="m"/>
    <connection from=":J1_15" to="B_out" fromLane="0" toLane="1" dir="l" state="m"/>
    <connection from=":J1_7" to="C_out" fromLane="0" toLane="1" dir="r" state="M"/>
    <connection from=":J1_8" to="D_out" fromLane="0" toLane="1" dir="s" state="M"/>
    <connection from=":J1_9" to="A_out" fromLane="0" toLane="2" via=":J1_16_0" dir="l" state="m"/>
    <connection from=":J1_16" to="A_out" fromLane="0" toLane="2" dir="l" state="M"/>
    <connection from=":J1_10" to="B_out" fromLane="0" toLane="1" dir="r" state="M"/>
    <connection from=":J1_11" to="C_out" fromLane="0" toLane="1" dir="s" state="M"/>
    <connection from=":J1_11" to="C_out" fromLane="1" toLane="2" dir="s" state="M"/>
    <connection from=":J1_13" to="D_out" fromLane="0" toLane="1" via=":J1_17_0" dir="l" state="m"/>
    <connection from=":J1_17" to="D_out" fromLane="0" toLane="1" dir="l" state="m"/>

    <connection from=":J0_w0" to="A_in" fromLane="0" toLane="0" dir="s" state="M"/>
    <connection from="A_out" to=":J0_w0" fromLane="0" toLane="0" dir="s" state="M"/>
    <connection from=":J1_c0" to=":J1_w0" fromLane="0" toLane="0" dir="s" state="M"/>
    <connection from=":J1_c1" to=":J1_w2" fromLane="0" toLane="0" dir="s" state="M"/>
    <connection from=":J1_w0" to="A_out" fromLane="0" toLane="0" dir="s" state="M"/>
    <connection from="D_in" to=":J1_w0" fromLane="0" toLane="0" dir="s" state="M"/>
    <connection from=":J1_w1" to=":J1_c0" fromLane="0" toLane="0" tl="J1" linkIndex="14" dir="s" state="M"/>
    <connection from=":J1_w1" to="D_out" fromLane="0" toLane="0" dir="s" state="M"/>
    <connection from="C_in" to=":J1_w1" fromLane="0" toLane="0" dir="s" state="M"/>
    <connection from=":J1_w2" to="C_out" fromLane="0" toLane="0" dir="s" state="M"/>
    <connection from="B_in" to=":J1_w2" fromLane="0" toLane="0" dir="s" state="M"/>
    <connection from=":J1_w3" to=":J1_c1" fromLane="0" toLane="0" tl="J1" linkIndex="15" dir="s" state="M"/>
    <connection from=":J1_w3" to="B_out" fromLane="0" toLane="0" dir="s" state="M"/>
    <connection from="A_in" to=":J1_w3" fromLane="0" toLane="0" dir="s" state="M"/>
    <connection from=":J2_w0" to="C_in" fromLane="0" toLane="0" dir="s" state="M"/>
    <connection from="C_out" to=":J2_w0" fromLane="0" toLane="0" dir="s" state="M"/>
    <connection from=":J3_w0" to="D_in" fromLane="0" toLane="0" dir="s" state="M"/>
    <connection from="D_out" to=":J3_w0" fromLane="0" toLane="0" dir="s" state="M"/>
    <connection from=":J4_w0" to="B_in" fromLane="0" toLane="0" dir="s" state="M"/>
    <connection from="B_out" to=":J4_w0" fromLane="0" toLane="0" dir="s" state="M"/>
</net>
