<?xml version="1.0" encoding="UTF-8"?>

<!-- generated on 2025-01-05 10:45:24 by Eclipse SUMO netedit Version 1.19.0
<configuration xmlns:xsi="http://www.w3.org/2001/XMLSchema-instance" xsi:noNamespaceSchemaLocation="http://sumo.dlr.de/xsd/neteditConfiguration.xsd">

    <input>
        <sumo-net-file value="C:\Users\VargaBalazs\Desktop\Projektek\EKOP-multimodal\Scenarios\Scenarios\Variant13_p42.net.xml"/>
    </input>

    <output>
        <output-file value="C:\Users\VargaBalazs\Desktop\Projektek\EKOP-multimodal\Scenarios\Scenarios\Variant13_p42.net.xml"/>
    </output>

    <processing>
        <geometry.min-radius.fix.railways value="false"/>
        <geometry.max-grade.fix value="false"/>
        <offset.disable-normalization value="true"/>
        <lefthand value="0"/>
    </processing>

    <junctions>
        <no-internal-links value="false"/>
        <no-turnarounds value="true"/>
        <junctions.corner-detail value="5"/>
        <junctions.limit-turn-speed value="5.50"/>
        <rectangular-lane-cut value="0"/>
    </junctions>

    <pedestrian>
        <walkingareas value="0"/>
    </pedestrian>

</configuration>
-->

<net version="1.16" junctionCornerDetail="5" limitTurnSpeed="5.50" xmlns:xsi="http://www.w3.org/2001/XMLSchema-instance" xsi:noNamespaceSchemaLocation="http://sumo.dlr.de/xsd/net_file.xsd">

    <location netOffset="0.00,0.00" convBoundary="-200.00,-200.00,200.00,200.00" origBoundary="-10000000000.00,-10000000000.00,10000000000.00,10000000000.00" projParameter="!"/>

    <edge id=":J0_w0" function="walkingarea">
        <lane id=":J0_w0_0" index="0" allow="pedestrian" speed="2.78" length="13.60" width="2.00" shape="-200.00,-7.40 -200.00,-9.40 -200.00,6.20 -200.00,4.20"/>
    </edge>
    <edge id=":J2_w0" function="walkingarea">
        <lane id=":J2_w0_0" index="0" allow="pedestrian" speed="2.78" length="13.60" width="2.00" shape="200.00,4.20 200.00,6.20 200.00,-9.40 200.00,-7.40"/>
    </edge>
    <edge id=":J3_w0" function="walkingarea">
        <lane id=":J3_w0_0" index="0" allow="pedestrian" speed="2.78" length="8.40" width="2.00" shape="-16.80,-200.00 -14.80,-200.00 -25.20,-200.00 -23.20,-200.00"/>
    </edge>
    <edge id=":J4_w0" function="walkingarea">
        <lane id=":J4_w0_0" index="0" allow="pedestrian" speed="2.78" length="8.40" width="2.00" shape="16.80,200.00 14.80,200.00 25.20,200.00 23.20,200.00"/>
    </edge>
    <edge id=":J5_0" function="internal">
        <lane id=":J5_0_0" index="0" allow="bicycle" speed="13.89" length="13.40" width="1.00" shape="-13.30,3.70 -26.70,3.70"/>
        <lane id=":J5_0_1" index="1" disallow="pedestrian" speed="13.89" length="13.40" shape="-13.30,1.60 -26.70,1.60"/>
    </edge>
    <edge id=":J5_2" function="internal">
        <lane id=":J5_2_0" index="0" allow="bicycle" speed="7.81" length="14.21" width="1.00" shape="-13.30,-2.70 -17.41,-3.21 -20.35,-4.75 -22.11,-7.31 -22.70,-10.90"/>
    </edge>
    <edge id=":J5_3" function="internal">
        <lane id=":J5_3_0" index="0" allow="bicycle" speed="5.61" length="6.45" width="1.00" shape="-17.30,-10.90 -17.05,-9.15 -16.30,-7.90 -15.05,-7.15 -13.30,-6.90"/>
        <lane id=":J5_3_1" index="1" disallow="pedestrian" speed="6.51" length="9.05" shape="-18.40,-10.90 -18.08,-8.23 -17.12,-6.33 -15.53,-5.18 -13.30,-4.80"/>
    </edge>
    <edge id=":J5_c0" function="crossing" crossingEdges="B_out B_in">
        <lane id=":J5_c0_0" index="0" allow="pedestrian" speed="2.78" length="6.40" width="4.00" shape="-23.20,-8.90 -16.80,-8.90"/>
    </edge>
    <edge id=":J5_c1" function="crossing" crossingEdges="A_out A_in">
        <lane id=":J5_c1_0" index="0" allow="pedestrian" speed="2.78" length="11.60" width="4.00" shape="-24.70,4.20 -24.70,-7.40"/>
    </edge>
    <edge id=":J5_w0" function="walkingarea">
        <lane id=":J5_w0_0" index="0" allow="pedestrian" speed="2.78" length="9.03" width="4.00" shape="-22.70,4.20 -26.70,4.20 -26.70,6.20 -13.30,6.20 -13.30,4.20"/>
    </edge>
    <edge id=":J5_w1" function="walkingarea">
        <lane id=":J5_w1_0" index="0" allow="pedestrian" speed="2.78" length="3.10" width="4.00" shape="-13.30,-7.40 -13.30,-9.40 -14.80,-10.90 -16.80,-10.90 -16.70,-9.83 -16.41,-8.96 -15.92,-8.28 -15.24,-7.79 -14.37,-7.50"/>
    </edge>
    <edge id=":J5_w2" function="walkingarea">
        <lane id=":J5_w2_0" index="0" allow="pedestrian" speed="2.78" length="2.87" width="4.00" shape="-23.20,-10.90 -25.20,-10.90 -26.70,-9.40 -26.70,-7.40 -25.63,-7.50 -24.76,-7.79 -24.07,-8.28 -23.59,-8.96 -23.30,-9.83"/>
    </edge>
    <edge id=":J7_0" function="internal">
        <lane id=":J7_0_0" index="0" allow="bicycle" speed="5.61" length="6.45" width="1.00" shape="17.30,7.70 17.05,5.95 16.30,4.70 15.05,3.95 13.30,3.70"/>
        <lane id=":J7_0_1" index="1" disallow="pedestrian" speed="6.51" length="9.05" shape="18.40,7.70 18.08,5.03 17.12,3.13 15.53,1.98 13.30,1.60"/>
    </edge>
    <edge id=":J7_2" function="internal">
        <lane id=":J7_2_0" index="0" allow="bicycle" speed="5.34" length="6.45" width="1.00" shape="26.70,3.70 24.95,3.95 23.70,4.70 22.95,5.95 22.70,7.70"/>
    </edge>
    <edge id=":J7_3" function="internal">
        <lane id=":J7_3_0" index="0" allow="bicycle" speed="13.89" length="13.40" width="1.00" shape="26.70,3.70 13.30,3.70"/>
    </edge>
    <edge id=":J7_4" function="internal">
        <lane id=":J7_4_0" index="0" disallow="pedestrian" speed="6.51" length="1.26" shape="26.70,1.60 25.45,1.81"/>
    </edge>
    <edge id=":J7_5" function="internal">
        <lane id=":J7_5_0" index="0" disallow="pedestrian" speed="13.89" length="13.40" shape="26.70,1.60 13.30,1.60"/>
    </edge>
    <edge id=":J7_9" function="internal">
        <lane id=":J7_9_0" index="0" disallow="pedestrian" speed="6.51" length="7.78" shape="25.45,1.81 24.47,1.98 22.87,3.13 21.92,5.03 21.60,7.70"/>
    </edge>
    <edge id=":J7_6" function="internal">
        <lane id=":J7_6_0" index="0" allow="bicycle" speed="13.89" length="13.40" width="1.00" shape="13.30,-6.90 26.70,-6.90"/>
        <lane id=":J7_6_1" index="1" disallow="pedestrian" speed="13.89" length="13.40" shape="13.30,-4.80 26.70,-4.80"/>
    </edge>
    <edge id=":J7_8" function="internal">
        <lane id=":J7_8_0" index="0" allow="bicycle" speed="7.81" length="5.25" width="1.00" shape="13.30,-0.50 17.41,0.01 18.40,0.53"/>
    </edge>
    <edge id=":J7_10" function="internal">
        <lane id=":J7_10_0" index="0" allow="bicycle" speed="7.81" length="8.95" width="1.00" shape="18.40,0.53 20.35,1.55 22.11,4.11 22.70,7.70"/>
    </edge>
    <edge id=":J7_c0" function="crossing" crossingEdges="D_out D_in">
        <lane id=":J7_c0_0" index="0" allow="pedestrian" speed="2.78" length="6.40" width="4.00" shape="23.20,5.70 16.80,5.70"/>
    </edge>
    <edge id=":J7_c1" function="crossing" crossingEdges="C_out C_in">
        <lane id=":J7_c1_0" index="0" allow="pedestrian" speed="2.78" length="11.60" width="4.00" shape="24.70,-7.40 24.70,4.20"/>
    </edge>
    <edge id=":J7_w0" function="walkingarea">
        <lane id=":J7_w0_0" index="0" allow="pedestrian" speed="2.78" length="3.10" width="4.00" shape="13.30,4.20 13.30,6.20 14.80,7.70 16.80,7.70 16.70,6.63 16.41,5.76 15.92,5.08 15.24,4.59 14.37,4.30"/>
    </edge>
    <edge id=":J7_w1" function="walkingarea">
        <lane id=":J7_w1_0" index="0" allow="pedestrian" speed="2.78" length="2.87" width="4.00" shape="23.20,7.70 25.20,7.70 26.70,6.20 26.70,4.20 25.63,4.30 24.76,4.59 24.08,5.08 23.59,5.76 23.30,6.63"/>
    </edge>
    <edge id=":J7_w2" function="walkingarea">
        <lane id=":J7_w2_0" index="0" allow="pedestrian" speed="2.78" length="9.03" width="4.00" shape="22.70,-7.40 26.70,-7.40 26.70,-9.40 13.30,-9.40 13.30,-7.40"/>
    </edge>
    <edge id=":J8_0" function="internal">
        <lane id=":J8_0_0" index="0" allow="bicycle" speed="13.89" length="4.36" width="1.00" shape="-5.16,3.70 -8.16,3.70"/>
        <lane id=":J8_0_1" index="1" allow="bicycle" speed="13.89" length="4.36" width="1.00" shape="-5.16,3.70 -8.16,-2.70"/>
        <lane id=":J8_0_2" index="2" disallow="pedestrian" speed="13.89" length="4.36" shape="-5.16,1.60 -8.16,1.60"/>
    </edge>
    <edge id=":J8_3" function="internal">
        <lane id=":J8_3_0" index="0" allow="bicycle" speed="13.89" length="3.00" width="1.00" shape="-8.16,-6.90 -5.16,-6.90"/>
        <lane id=":J8_3_1" index="1" disallow="pedestrian" speed="13.89" length="3.00" shape="-8.16,-4.80 -5.16,-4.80"/>
    </edge>
    <edge id=":J8_w0" function="walkingarea">
        <lane id=":J8_w0_0" index="0" allow="pedestrian" speed="2.78" length="3.00" width="2.00" shape="-8.16,4.20 -8.16,6.20 -5.16,6.20 -5.16,4.20"/>
    </edge>
    <edge id=":J8_w1" function="walkingarea">
        <lane id=":J8_w1_0" index="0" allow="pedestrian" speed="2.78" length="3.00" width="2.00" shape="-5.16,-7.40 -5.16,-9.40 -8.16,-9.40 -8.16,-7.40"/>
    </edge>
    <edge id=":J9_0" function="internal">
        <lane id=":J9_0_0" index="0" allow="bicycle" speed="13.89" length="3.00" width="1.00" shape="8.16,3.70 5.16,3.70"/>
        <lane id=":J9_0_1" index="1" disallow="pedestrian" speed="13.89" length="3.00" shape="8.16,1.60 5.16,1.60"/>
    </edge>
    <edge id=":J9_2" function="internal">
        <lane id=":J9_2_0" index="0" allow="bicycle" speed="13.89" length="4.36" width="1.00" shape="5.16,-6.90 8.16,-6.90"/>
        <lane id=":J9_2_1" index="1" allow="bicycle" speed="13.89" length="4.36" width="1.00" shape="5.16,-6.90 8.16,-0.50"/>
        <lane id=":J9_2_2" index="2" disallow="pedestrian" speed="13.89" length="4.36" shape="5.16,-4.80 8.16,-4.80"/>
    </edge>
    <edge id=":J9_w0" function="walkingarea">
        <lane id=":J9_w0_0" index="0" allow="pedestrian" speed="2.78" length="3.00" width="2.00" shape="5.16,4.20 5.16,6.20 8.16,6.20 8.16,4.20"/>
    </edge>
    <edge id=":J9_w1" function="walkingarea">
        <lane id=":J9_w1_0" index="0" allow="pedestrian" speed="2.78" length="3.00" width="2.00" shape="8.16,-7.40 8.16,-9.40 5.16,-9.40 5.16,-7.40"/>
    </edge>

    <edge id="-E1.174" from="J7" to="J9" priority="5">
        <lane id="-E1.174_0" index="0" allow="pedestrian" speed="13.89" length="5.14" width="2.00" shape="13.30,5.20 8.16,5.20"/>
        <lane id="-E1.174_1" index="1" allow="bicycle" speed="13.89" length="5.14" width="1.00" shape="13.30,3.70 8.16,3.70"/>
        <lane id="-E1.174_2" index="2" disallow="pedestrian" speed="13.89" length="5.14" shape="13.30,1.60 8.16,1.60"/>
    </edge>
    <edge id="-E1.185" from="J9" to="J8" priority="5" shape="6.66,0.00 0.00,0.00 -6.66,0.00">
        <lane id="-E1.185_0" index="0" allow="pedestrian" speed="13.89" length="10.32" width="2.00" shape="5.16,5.20 0.00,5.20 -5.16,5.20"/>
        <lane id="-E1.185_1" index="1" allow="bicycle" speed="13.89" length="10.32" width="1.00" shape="5.16,3.70 0.00,3.70 -5.16,3.70"/>
        <lane id="-E1.185_2" index="2" disallow="pedestrian" speed="13.89" length="10.32" shape="5.16,1.60 0.00,1.60 -5.16,1.60"/>
    </edge>
    <edge id="-E10" from="J8" to="J5" priority="5" shape="-6.66,-3.20 -20.00,-3.20">
        <lane id="-E10_0" index="0" allow="pedestrian" speed="13.89" length="5.14" width="2.00" shape="-8.16,5.20 -13.30,5.20"/>
        <lane id="-E10_1" index="1" allow="bicycle" speed="13.89" length="5.14" width="1.00" shape="-8.16,3.70 -13.30,3.70"/>
        <lane id="-E10_2" index="2" disallow="pedestrian" speed="13.89" length="5.14" shape="-8.16,1.60 -13.30,1.60"/>
        <lane id="-E10_3" index="3" disallow="all" speed="13.89" length="5.14" width="2.20" shape="-8.16,-1.10 -13.30,-1.10"/>
        <lane id="-E10_4" index="4" allow="bicycle" speed="13.89" length="5.14" width="1.00" shape="-8.16,-2.70 -13.30,-2.70"/>
    </edge>
    <edge id="A_in" from="J0" to="J5" priority="5">
        <lane id="A_in_0" index="0" allow="pedestrian" speed="13.89" length="173.30" width="2.00" shape="-200.00,-8.40 -26.70,-8.40"/>
        <lane id="A_in_1" index="1" allow="bicycle" speed="13.89" length="173.30" width="1.00" shape="-200.00,-6.90 -26.70,-6.90"/>
        <lane id="A_in_2" index="2" disallow="pedestrian" speed="13.89" length="173.30" shape="-200.00,-4.80 -26.70,-4.80"/>
        <lane id="A_in_3" index="3" disallow="all" speed="13.89" length="173.30" shape="-200.00,-1.60 -26.70,-1.60"/>
    </edge>
    <edge id="A_out" from="J5" to="J0" priority="5">
        <lane id="A_out_0" index="0" allow="pedestrian" speed="13.89" length="173.30" width="2.00" shape="-26.70,5.20 -200.00,5.20"/>
        <lane id="A_out_1" index="1" allow="bicycle" speed="13.89" length="173.30" width="1.00" shape="-26.70,3.70 -200.00,3.70"/>
        <lane id="A_out_2" index="2" disallow="pedestrian" speed="13.89" length="173.30" shape="-26.70,1.60 -200.00,1.60"/>
    </edge>
    <edge id="B_in" from="J3" to="J5" priority="1">
        <lane id="B_in_0" index="0" allow="pedestrian" speed="13.89" length="189.10" width="2.00" shape="-15.80,-200.00 -15.80,-10.90"/>
        <lane id="B_in_1" index="1" disallow="pedestrian" speed="13.89" length="189.10" shape="-18.40,-200.00 -18.40,-10.90"/>
    </edge>
    <edge id="B_out" from="J5" to="J3" priority="1">
        <lane id="B_out_0" index="0" allow="pedestrian" speed="13.89" length="189.10" width="2.00" shape="-24.20,-10.90 -24.20,-200.00"/>
        <lane id="B_out_1" index="1" disallow="pedestrian" speed="13.89" length="189.10" shape="-21.60,-10.90 -21.60,-200.00"/>
    </edge>
    <edge id="C_in" from="J2" to="J7" priority="5">
        <lane id="C_in_0" index="0" allow="pedestrian" speed="13.89" length="173.30" width="2.00" shape="200.00,5.20 26.70,5.20"/>
        <lane id="C_in_1" index="1" allow="bicycle" speed="13.89" length="173.30" width="1.00" shape="200.00,3.70 26.70,3.70"/>
        <lane id="C_in_2" index="2" disallow="pedestrian" speed="13.89" length="173.30" shape="200.00,1.60 26.70,1.60"/>
    </edge>
    <edge id="C_out" from="J7" to="J2" priority="5">
        <lane id="C_out_0" index="0" allow="pedestrian" speed="13.89" length="173.30" width="2.00" shape="26.70,-8.40 200.00,-8.40"/>
        <lane id="C_out_1" index="1" allow="bicycle" speed="13.89" length="173.30" width="1.00" shape="26.70,-6.90 200.00,-6.90"/>
        <lane id="C_out_2" index="2" disallow="pedestrian" speed="13.89" length="173.30" shape="26.70,-4.80 200.00,-4.80"/>
        <lane id="C_out_3" index="3" disallow="all" speed="13.89" length="173.30" shape="26.70,-1.60 200.00,-1.60"/>
    </edge>
    <edge id="D_in" from="J4" to="J7" priority="1">
        <lane id="D_in_0" index="0" allow="pedestrian" speed="13.89" length="192.30" width="2.00" shape="15.80,200.00 15.80,7.70"/>
        <lane id="D_in_1" index="1" disallow="pedestrian" speed="13.89" length="192.30" shape="18.40,200.00 18.40,7.70"/>
    </edge>
    <edge id="D_out" from="J7" to="J4" priority="1">
        <lane id="D_out_0" index="0" allow="pedestrian" speed="13.89" length="192.30" width="2.00" shape="24.20,7.70 24.20,200.00"/>
        <lane id="D_out_1" index="1" disallow="pedestrian" speed="13.89" length="192.30" shape="21.60,7.70 21.60,200.00"/>
    </edge>
    <edge id="E1" from="J5" to="J8" priority="5" shape="-20.00,-3.20 -6.66,-3.20">
        <lane id="E1_0" index="0" allow="pedestrian" speed="13.89" length="5.14" width="2.00" shape="-13.30,-8.40 -8.16,-8.40"/>
        <lane id="E1_1" index="1" allow="bicycle" speed="13.89" length="5.14" width="1.00" shape="-13.30,-6.90 -8.16,-6.90"/>
        <lane id="E1_2" index="2" disallow="pedestrian" speed="13.89" length="5.14" shape="-13.30,-4.80 -8.16,-4.80"/>
    </edge>
    <edge id="E1.13" from="J8" to="J9" priority="5" shape="-6.66,0.00 0.00,0.00 6.66,0.00">
        <lane id="E1.13_0" index="0" allow="pedestrian" speed="13.89" length="10.32" width="2.00" shape="-5.16,-8.40 0.00,-8.40 5.16,-8.40"/>
        <lane id="E1.13_1" index="1" allow="bicycle" speed="13.89" length="10.32" width="1.00" shape="-5.16,-6.90 0.00,-6.90 5.16,-6.90"/>
        <lane id="E1.13_2" index="2" disallow="pedestrian" speed="13.89" length="10.32" shape="-5.16,-4.80 0.00,-4.80 5.16,-4.80"/>
        <lane id="E1.13_3" index="3" disallow="all" speed="13.89" length="10.32" shape="-5.16,-1.60 0.00,-1.60 5.16,-1.60"/>
    </edge>
    <edge id="E1.174" from="J9" to="J7" priority="5">
        <lane id="E1.174_0" index="0" allow="pedestrian" speed="13.89" length="5.14" width="2.00" shape="8.16,-8.40 13.30,-8.40"/>
        <lane id="E1.174_1" index="1" allow="bicycle" speed="13.89" length="5.14" width="1.00" shape="8.16,-6.90 13.30,-6.90"/>
        <lane id="E1.174_2" index="2" disallow="pedestrian" speed="13.89" length="5.14" shape="8.16,-4.80 13.30,-4.80"/>
        <lane id="E1.174_3" index="3" disallow="all" speed="13.89" length="5.14" width="2.20" shape="8.16,-2.10 13.30,-2.10"/>
        <lane id="E1.174_4" index="4" allow="bicycle" speed="13.89" length="5.14" width="1.00" shape="8.16,-0.50 13.30,-0.50"/>
    </edge>

    <junction id="J0" type="dead_end" x="-200.00" y="0.00" incLanes="A_out_0 A_out_1 A_out_2" intLanes="" shape="-200.00,-3.20 -200.00,6.20 -200.00,0.00"/>
    <junction id="J2" type="dead_end" x="200.00" y="0.00" incLanes="C_out_0 C_out_1 C_out_2 C_out_3" intLanes="" shape="200.00,0.00 200.00,-9.40 200.00,-3.20"/>
    <junction id="J3" type="dead_end" x="-20.00" y="-200.00" incLanes="B_out_0 B_out_1" intLanes="" shape="-20.00,-200.00 -25.20,-200.00 -20.00,-200.00"/>
    <junction id="J4" type="dead_end" x="20.00" y="200.00" incLanes="D_out_0 D_out_1" intLanes="" shape="20.00,200.00 25.20,200.00 20.00,200.00"/>
    <junction id="J5" type="priority" x="-20.00" y="0.00" incLanes="-E10_0 -E10_1 -E10_2 -E10_3 -E10_4 B_in_0 B_in_1 A_in_0 A_in_1 A_in_2 A_in_3 :J5_w2_0 :J5_w0_0" intLanes=":J5_0_0 :J5_0_1 :J5_2_0 :J5_3_0 :J5_3_1 :J5_c0_0 :J5_c1_0" shape="-13.30,6.20 -13.30,-9.40 -14.13,-9.57 -14.42,-9.78 -14.63,-10.07 -14.76,-10.44 -14.80,-10.90 -25.20,-10.90 -25.37,-10.07 -25.57,-9.77 -25.87,-9.57 -26.24,-9.44 -26.70,-9.40 -26.70,6.20">
        <request index="0" response="0000000" foes="1000000" cont="0"/>
        <request index="1" response="0000000" foes="1000000" cont="0"/>
        <request index="2" response="0100000" foes="0100000" cont="0"/>
        <request index="3" response="0000000" foes="0100000" cont="0"/>
        <request index="4" response="0000000" foes="0100000" cont="0"/>
        <request index="5" response="0011000" foes="0011100" cont="0"/>
        <request index="6" response="0000011" foes="0000011" cont="0"/>
    </junction>
    <junction id="J7" type="priority" x="20.00" y="0.00" incLanes="D_in_0 D_in_1 C_in_0 C_in_1 C_in_2 E1.174_0 E1.174_1 E1.174_2 E1.174_3 E1.174_4 :J7_w1_0 :J7_w2_0" intLanes=":J7_0_0 :J7_0_1 :J7_2_0 :J7_3_0 :J7_9_0 :J7_5_0 :J7_6_0 :J7_6_1 :J7_10_0 :J7_c0_0 :J7_c1_0" shape="14.80,7.70 25.20,7.70 25.37,6.87 25.57,6.57 25.87,6.37 26.24,6.24 26.70,6.20 26.70,-9.40 13.30,-9.40 13.30,6.20 14.13,6.37 14.43,6.58 14.63,6.87 14.76,7.24">
        <request index="0"  response="00000001000" foes="01000001000" cont="0"/>
        <request index="1"  response="00000101000" foes="01000101000" cont="0"/>
        <request index="2"  response="01000000000" foes="11100010000" cont="0"/>
        <request index="3"  response="00000000000" foes="10100010011" cont="0"/>
        <request index="4"  response="01000001100" foes="11100001100" cont="1"/>
        <request index="5"  response="00000000000" foes="10100000010" cont="0"/>
        <request index="6"  response="00000000000" foes="10000000000" cont="0"/>
        <request index="7"  response="00000000000" foes="10000000000" cont="0"/>
        <request index="8"  response="01000111100" foes="01000111100" cont="1"/>
        <request index="9"  response="00000000011" foes="00100010111" cont="0"/>
        <request index="10" response="00011111100" foes="00011111100" cont="0"/>
    </junction>
    <junction id="J8" type="priority" x="-6.66" y="0.00" incLanes="-E1.185_0 -E1.185_1 -E1.185_2 E1_0 E1_1 E1_2" intLanes=":J8_0_0 :J8_0_1 :J8_0_2 :J8_3_0 :J8_3_1" shape="-5.16,6.20 -5.16,-9.40 -8.16,-9.40 -8.16,6.20">
        <request index="0" response="00000" foes="00000" cont="0"/>
        <request index="1" response="00000" foes="00000" cont="0"/>
        <request index="2" response="00000" foes="00000" cont="0"/>
        <request index="3" response="00000" foes="00000" cont="0"/>
        <request index="4" response="00000" foes="00000" cont="0"/>
    </junction>
    <junction id="J9" type="priority" x="6.66" y="0.00" incLanes="-E1.174_0 -E1.174_1 -E1.174_2 E1.13_0 E1.13_1 E1.13_2 E1.13_3" intLanes=":J9_0_0 :J9_0_1 :J9_2_0 :J9_2_1 :J9_2_2" shape="8.16,6.20 8.16,-9.40 5.16,-9.40 5.16,6.20">
        <request index="0" response="00000" foes="00000" cont="0"/>
        <request index="1" response="00000" foes="00000" cont="0"/>
        <request index="2" response="00000" foes="00000" cont="0"/>
        <request index="3" response="00000" foes="00000" cont="0"/>
        <request index="4" response="00000" foes="00000" cont="0"/>
    </junction>

    <junction id=":J7_9_0" type="internal" x="25.45" y="1.81" incLanes=":J7_4_0 C_in_1" intLanes=":J7_2_0 :J7_3_0 :J7_8_0 :J7_c0_0 :J7_c1_0"/>
    <junction id=":J7_10_0" type="internal" x="18.40" y="0.53" incLanes=":J7_8_0 C_in_1 C_in_2" intLanes=":J7_2_0 :J7_3_0 :J7_4_0 :J7_5_0 :J7_c0_0"/>

    <connection from="-E1.174" to="-E1.185" fromLane="1" toLane="1" via=":J9_0_0" dir="s" state="M"/>
    <connection from="-E1.174" to="-E1.185" fromLane="2" toLane="2" via=":J9_0_1" dir="s" state="M"/>
    <connection from="-E1.185" to="-E10" fromLane="1" toLane="1" via=":J8_0_0" dir="s" state="M"/>
    <connection from="-E1.185" to="-E10" fromLane="1" toLane="4" via=":J8_0_1" dir="s" state="M"/>
    <connection from="-E1.185" to="-E10" fromLane="2" toLane="2" via=":J8_0_2" dir="s" state="M"/>
    <connection from="-E10" to="A_out" fromLane="1" toLane="1" via=":J5_0_0" dir="s" state="M"/>
    <connection from="-E10" to="A_out" fromLane="2" toLane="2" via=":J5_0_1" dir="s" state="M"/>
    <connection from="-E10" to="B_out" fromLane="4" toLane="1" via=":J5_2_0" dir="l" state="m"/>
    <connection from="B_in" to="E1" fromLane="1" toLane="1" via=":J5_3_0" dir="r" state="M"/>
    <connection from="B_in" to="E1" fromLane="1" toLane="2" via=":J5_3_1" dir="r" state="M"/>
    <connection from="C_in" to="D_out" fromLane="1" toLane="1" via=":J7_2_0" dir="r" state="m"/>
    <connection from="C_in" to="-E1.174" fromLane="1" toLane="1" via=":J7_3_0" dir="s" state="M"/>
    <connection from="C_in" to="D_out" fromLane="2" toLane="1" via=":J7_4_0" dir="r" state="m"/>
    <connection from="C_in" to="-E1.174" fromLane="2" toLane="2" via=":J7_5_0" dir="s" state="M"/>
    <connection from="D_in" to="-E1.174" fromLane="1" toLane="1" via=":J7_0_0" dir="r" state="m"/>
    <connection from="D_in" to="-E1.174" fromLane="1" toLane="2" via=":J7_0_1" dir="r" state="m"/>
    <connection from="E1" to="E1.13" fromLane="1" toLane="1" via=":J8_3_0" dir="s" state="M"/>
    <connection from="E1" to="E1.13" fromLane="2" toLane="2" via=":J8_3_1" dir="s" state="M"/>
    <connection from="E1.13" to="E1.174" fromLane="1" toLane="1" via=":J9_2_0" dir="s" state="M"/>
    <connection from="E1.13" to="E1.174" fromLane="1" toLane="4" via=":J9_2_1" dir="s" state="M"/>
    <connection from="E1.13" to="E1.174" fromLane="2" toLane="2" via=":J9_2_2" dir="s" state="M"/>
    <connection from="E1.174" to="C_out" fromLane="1" toLane="1" via=":J7_6_0" dir="s" state="M"/>
    <connection from="E1.174" to="C_out" fromLane="2" toLane="2" via=":J7_6_1" dir="s" state="M"/>
    <connection from="E1.174" to="D_out" fromLane="4" toLane="1" via=":J7_8_0" dir="l" state="m"/>

    <connection from=":J5_0" to="A_out" fromLane="0" toLane="1" dir="s" state="M"/>
    <connection from=":J5_0" to="A_out" fromLane="1" toLane="2" dir="s" state="M"/>
    <connection from=":J5_2" to="B_out" fromLane="0" toLane="1" dir="l" state="M"/>
    <connection from=":J5_3" to="E1" fromLane="0" toLane="1" dir="r" state="M"/>
    <connection from=":J5_3" to="E1" fromLane="1" toLane="2" dir="r" state="M"/>
    <connection from=":J7_0" to="-E1.174" fromLane="0" toLane="1" dir="r" state="M"/>
    <connection from=":J7_0" to="-E1.174" fromLane="1" toLane="2" dir="r" state="M"/>
    <connection from=":J7_2" to="D_out" fromLane="0" toLane="1" dir="r" state="M"/>
    <connection from=":J7_3" to="-E1.174" fromLane="0" toLane="1" dir="s" state="M"/>
    <connection from=":J7_4" to="D_out" fromLane="0" toLane="1" via=":J7_9_0" dir="r" state="m"/>
    <connection from=":J7_9" to="D_out" fromLane="0" toLane="1" dir="r" state="m"/>
    <connection from=":J7_5" to="-E1.174" fromLane="0" toLane="2" dir="s" state="M"/>
    <connection from=":J7_6" to="C_out" fromLane="0" toLane="1" dir="s" state="M"/>
    <connection from=":J7_6" to="C_out" fromLane="1" toLane="2" dir="s" state="M"/>
    <connection from=":J7_8" to="D_out" fromLane="0" toLane="1" via=":J7_10_0" dir="l" state="m"/>
    <connection from=":J7_10" to="D_out" fromLane="0" toLane="1" dir="l" state="m"/>
    <connection from=":J8_0" to="-E10" fromLane="0" toLane="1" dir="s" state="M"/>
    <connection from=":J8_0" to="-E10" fromLane="1" toLane="4" dir="s" state="M"/>
    <connection from=":J8_0" to="-E10" fromLane="2" toLane="2" dir="s" state="M"/>
    <connection from=":J8_3" to="E1.13" fromLane="0" toLane="1" dir="s" state="M"/>
    <connection from=":J8_3" to="E1.13" fromLane="1" toLane="2" dir="s" state="M"/>
    <connection from=":J9_0" to="-E1.185" fromLane="0" toLane="1" dir="s" state="M"/>
    <connection from=":J9_0" to="-E1.185" fromLane="1" toLane="2" dir="s" state="M"/>
    <connection from=":J9_2" to="E1.174" fromLane="0" toLane="1" dir="s" state="M"/>
    <connection from=":J9_2" to="E1.174" fromLane="1" toLane="4" dir="s" state="M"/>
    <connection from=":J9_2" to="E1.174" fromLane="2" toLane="2" dir="s" state="M"/>

    <connection from=":J0_w0" to="A_in" fromLane="0" toLane="0" dir="s" state="M"/>
    <connection from="A_out" to=":J0_w0" fromLane="0" toLane="0" dir="s" state="M"/>
    <connection from=":J2_w0" to="C_in" fromLane="0" toLane="0" dir="s" state="M"/>
    <connection from="C_out" to=":J2_w0" fromLane="0" toLane="0" dir="s" state="M"/>
    <connection from=":J3_w0" to="B_in" fromLane="0" toLane="0" dir="s" state="M"/>
    <connection from="B_out" to=":J3_w0" fromLane="0" toLane="0" dir="s" state="M"/>
    <connection from=":J4_w0" to="D_in" fromLane="0" toLane="0" dir="s" state="M"/>
    <connection from="D_out" to=":J4_w0" fromLane="0" toLane="0" dir="s" state="M"/>
    <connection from=":J5_c0" to=":J5_w1" fromLane="0" toLane="0" dir="s" state="M"/>
    <connection from=":J5_c1" to=":J5_w2" fromLane="0" toLane="0" dir="s" state="M"/>
    <connection from=":J5_w0" to=":J5_c1" fromLane="0" toLane="0" dir="s" state="m"/>
    <connection from=":J5_w0" to="A_out" fromLane="0" toLane="0" dir="s" state="M"/>
    <connection from="-E10" to=":J5_w0" fromLane="0" toLane="0" dir="s" state="M"/>
    <connection from=":J5_w1" to="E1" fromLane="0" toLane="0" dir="s" state="M"/>
    <connection from="B_in" to=":J5_w1" fromLane="0" toLane="0" dir="s" state="M"/>
    <connection from=":J5_w2" to=":J5_c0" fromLane="0" toLane="0" dir="s" state="m"/>
    <connection from=":J5_w2" to="B_out" fromLane="0" toLane="0" dir="s" state="M"/>
    <connection from="A_in" to=":J5_w2" fromLane="0" toLane="0" dir="s" state="M"/>
    <connection from=":J7_c0" to=":J7_w0" fromLane="0" toLane="0" dir="s" state="M"/>
    <connection from=":J7_c1" to=":J7_w1" fromLane="0" toLane="0" dir="s" state="M"/>
    <connection from=":J7_w0" to="-E1.174" fromLane="0" toLane="0" dir="s" state="M"/>
    <connection from="D_in" to=":J7_w0" fromLane="0" toLane="0" dir="s" state="M"/>
    <connection from=":J7_w1" to=":J7_c0" fromLane="0" toLane="0" dir="s" state="m"/>
    <connection from=":J7_w1" to="D_out" fromLane="0" toLane="0" dir="s" state="M"/>
    <connection from="C_in" to=":J7_w1" fromLane="0" toLane="0" dir="s" state="M"/>
    <connection from=":J7_w2" to=":J7_c1" fromLane="0" toLane="0" dir="s" state="m"/>
    <connection from=":J7_w2" to="C_out" fromLane="0" toLane="0" dir="s" state="M"/>
    <connection from="E1.174" to=":J7_w2" fromLane="0" toLane="0" dir="s" state="M"/>
    <connection from=":J8_w0" to="-E10" fromLane="0" toLane="0" dir="s" state="M"/>
    <connection from="-E1.185" to=":J8_w0" fromLane="0" toLane="0" dir="s" state="M"/>
    <connection from=":J8_w1" to="E1.13" fromLane="0" toLane="0" dir="s" state="M"/>
    <connection from="E1" to=":J8_w1" fromLane="0" toLane="0" dir="s" state="M"/>
    <connection from=":J9_w0" to="-E1.185" fromLane="0" toLane="0" dir="s" state="M"/>
    <connection from="-E1.174" to=":J9_w0" fromLane="0" toLane="0" dir="s" state="M"/>
    <connection from=":J9_w1" to="E1.174" fromLane="0" toLane="0" dir="s" state="M"/>
    <connection from="E1.13" to=":J9_w1" fromLane="0" toLane="0" dir="s" state="M"/>
</net>
